34
CSD_code = NONYIA | q = 0 | S = 0 | Stoichiometry = C13H15Br2N3Pd | MND = 4
Pd        1.31352456970711    4.12027213052193    2.43279909046026
Br        1.15708073329904    1.70104107421256    2.19601640229424
Br        1.90755025865039    6.45225192503707    2.81602294734211
N         3.93699343096407    3.90317896477978    1.29786241832843
N         4.72554344471047    3.98386503161792    0.17477917207478
N        -0.07802485511722    4.15310995082564    3.82214798063514
C         2.65439228518826    4.09613414114280    1.03688844095863
C         2.56714114685201    4.25698480745038   -0.37618652730430
C         1.48727889109258    4.47403791036492   -1.23289953332127
H         0.48644682559626    4.55702970572750   -0.82640281508420
C         1.74540008940848    4.57270188871226   -2.57936772766707
H         0.93635172667055    4.73844732879510   -3.27392396184407
C         3.05026178443336    4.45802803554243   -3.07428770328758
H         3.21077393222513    4.53646072708736   -4.13922649294458
C         4.13291505987157    4.24657646123173   -2.24839341178088
H         5.13198608008416    4.15943615952133   -2.64643919627353
C         3.88359290757255    4.15169107016967   -0.88284545957947
C         6.06100856270798    3.44376253760533    0.14847038247500
H         6.62069860005271    3.96995908835182   -0.62891208769715
H         6.02511323440420    2.37611472576052   -0.11226125600266
C         6.72394098004294    3.61696184238775    1.51106157482437
H         6.89590192569481    4.67702543107576    1.70801139323837
H         7.68776588605219    3.10893188931944    1.50556337149239
C         5.81154235503803    3.03678962096988    2.58844288502319
H         6.28851629574660    3.08730300307467    3.56629867284336
H         5.59200573044772    1.98998096469452    2.36811313081076
C         4.51915303870643    3.84131625998913    2.61774846464563
H         3.76982186867954    3.38316660082600    3.28945824625084
H         4.71536457292447    4.86621350833811    2.96445273772632
C        -0.92885918184174    4.17882963844053    4.59233574993222
C        -1.98266139899255    4.20804996339377    5.55691851224328
H        -2.38439971074645    3.20309713638691    5.68798802933984
H        -2.77422882190313    4.87394024109919    5.21258025532136
H        -1.59439224821821    4.57191023554197    6.50848631451887

