39
CSD_code = NONYUM | q = 0 | S = 0 | Stoichiometry = C16H17Br2N3Pd | MND = 4
Pd        8.36307768982353    7.42537508173217    7.47929740273063
Br        8.60847297006159    8.35720615250163    9.71232577786474
Br        8.54882246388208    6.48202683993298    5.25124383968147
N         8.13798797525309    9.27364309763820    6.70230734416211
N         9.70211607297199    5.11713822041085    8.53401106452240
N         9.60263757707049    3.88129831166380    9.12855808145713
C         6.91768533309660    9.60524628595727    6.28771990142101
H         6.14911408338243    8.83421244185475    6.37452954777513
C         6.62848466636825   10.85377986084186    5.76776791126054
H         5.62609456192418   11.08630096118326    5.44488160673568
C         7.64932464282567   11.78771344559787    5.67033183630616
H         7.45834407478283   12.77054643860357    5.26701309356412
C         8.91855709975703   11.43430191761118    6.10105345188811
H         9.74116040097485   12.12918844874846    6.04424621001439
C         9.11959203228566   10.16516553521377    6.61478002063317
H        10.09586740881282    9.84859860012618    6.97562216758053
C         8.52370407029814    5.64038878676164    8.23852861026717
C        10.96244761590717    5.81948495290971    8.47431994692861
H        11.09374154987180    6.38609536491208    9.40770555004311
H        10.90004881363993    6.53732805729437    7.63489135522334
C        12.10967109672986    4.83592523700525    8.28750579587088
H        13.05626550600031    5.37099923699410    8.35212643510080
H        12.04499202623009    4.37249919010617    7.30069251195454
C        12.01885129106606    3.76618991095951    9.37261002934985
H        12.86371130324215    3.08089041019532    9.31157925078469
H        12.03139584798604    4.23973973843298   10.35633340502996
C        10.72438666796807    2.97974590904895    9.19255557322736
H        10.77792123315916    2.38568742858861    8.26860401327002
H        10.56046633273586    2.29828520515330   10.03118716776768
C         8.27990079087165    3.55586066006777    9.13335305035634
C         7.61739280690392    2.41296828361682    9.56972251402119
H         8.15552248154991    1.56617024659607    9.96676751836197
C         6.24250733268048    2.40583109524076    9.47610088052466
H         5.69917182470931    1.53346190448576    9.80745899001202
C         5.52419160850583    3.49234799566475    8.96244608770247
H         4.44792808600881    3.43040121042921    8.91364122414892
C         6.16963410467153    4.62325821717901    8.52207958373242
H         5.63618404452605    5.47550837476343    8.11882541102989
C         7.56192451147279    4.65429094397356    8.60477583769411

