71
CSD_code = NONZUM | q = 0 | S = 0 | Stoichiometry = C34H28N6NiO2 | MND = 6
Ni        3.63708562387333    9.56279522426215    4.54847202967768
N         1.40653321666651   12.53383223886712    3.29666479978996
N         3.23959495836994   11.49770402319752    4.28839320117933
N         5.74269241445912    9.82257113451378    3.34238006418105
O         4.58401681553172    9.96404999786112    6.09536818887503
C         3.38597630130025   12.41317920275872    5.19304530047715
H         2.97449771712402   13.40308038566367    4.98041666930614
C         4.08210249964262   12.28015395678684    6.41855892768941
C         4.67950669171399   11.02948869073922    6.78270305208367
C         5.42152682788592   11.00367371490737    7.99848474727018
H         5.88652552573475   10.06682957162983    8.26793566225608
C         5.53005883815488   12.10761884910036    8.79542823489192
H         6.09332963841941   12.04999094103507    9.71641926536109
C         4.92012675080238   13.31853242003646    8.43903945929159
H         5.01345825132622   14.17909342173311    9.08350983201816
C         4.21631737356968   13.39448220513943    7.26829783068685
H         3.74680722951249   14.32298341197531    6.97275965659925
C         2.54690310580885   11.86993978609460    3.13505432993353
C         3.07369899622297   11.56788226625080    1.87484413503044
H         4.01998443538958   11.05504602473598    1.80830840430052
C         2.35149779183853   11.93880048896682    0.75988559569261
H         2.72307796103253   11.71806794633533   -0.23103104301221
C         1.13950827268726   12.59887875677447    0.92768579367981
H         0.54056063812498   12.89294157096084    0.07971326749335
C         0.72354429807173   12.87665584285862    2.21759396481795
H        -0.20328776899700   13.40331244988192    2.40833377816671
C         6.19398420289851    8.74793365592809    2.70314571712269
H         5.45678699726581    8.17011568724752    2.16068826601462
C         7.52567674993664    8.36637509257538    2.69781422032034
H         7.83386327900376    7.47699917426265    2.17062230412993
C         8.44206418317120    9.14713425161648    3.38197136704611
H         9.48840216430945    8.87864028268669    3.40848541520529
C         7.98644079921967   10.28933066281566    4.01994768438999
H         8.66494526460595   10.94024438007047    4.54979608297431
C         6.63414909771758   10.58419963480465    3.96956308049398
H         6.24917394793547   11.47529285097582    4.44879116894913
N         5.86909461462770    6.59248019211290    5.79858892495589
N         4.03489773859329    7.62785651818574    4.80822796438123
N         1.53190002794916    9.30251772890352    5.75497207532837
O         2.68990384625777    9.16161041452189    3.00174884574481
C         3.88813157457505    6.71241232373503    3.90360392085756
H         4.29983916492641    5.72254488124441    4.11595424215974
C         3.19140443868573    6.84544254044333    2.67843457212847
C         2.59399472400363    8.09616352662944    2.31449659258384
C         1.85149079975698    8.12204290201096    1.09900893714599
H         1.38653317067620    9.05894828307629    0.82969995533064
C         1.74248507001886    7.01808564664739    0.30215118856991
H         1.17890035810671    7.07577060981332   -0.61864376190936
C         2.35241446832429    5.80710691978126    0.65833231782435
H         2.25874977958310    4.94655292310989    0.01390084155878
C         3.05670002667565    5.73110549947076    1.82878162064578
H         3.52624025789089    4.80256247384269    2.12414198318835
C         4.72847247101243    7.25573388872695    5.96106237156200
C         4.20232274805832    7.55726294755658    7.22166804602204
H         3.25581186463987    8.06958206120801    7.28892467365961
C         4.92542521696941    7.18649523066108    8.33609256460187
H         4.55434625695700    7.40680813600794    9.32728893627896
C         6.13766096911944    6.52709840161598    8.16738607660764
H         6.73729898852533    6.23317900829421    9.01491763194120
C         6.55295790682855    6.24981755199696    6.87715669545524
H         7.47994172705718    5.72368174249158    6.68572332076860
C         1.08020177743401   10.37675486544969    6.39457576722740
H         1.81739133936809   10.95545986684674    6.93610106634582
C        -0.25187334212904   10.75694832391586    6.40126992245252
H        -0.56041703387934   11.64602049280169    6.92878345372312
C        -1.16821282549910    9.97508688859094    5.71831859407937
H        -2.21486741250253   10.24246905035892    5.69296090944996
C        -0.71210633324190    8.83329194173570    5.07997467913111
H        -1.39048270297521    8.18163803734663    4.55087703878919
C         0.64058076762838    8.53991239487529    5.12878515116324
H         1.02593646564328    7.64910558993608    4.64934242585820

