59
CSD_code = NONZAT | q = 0 | S = 0 | Stoichiometry = C28H25Br2N2PPd | MND = 4
Pd        6.74352587424257    2.93089873064260   12.43126075888139
Br        8.15269285560845    2.90904456056250   10.46686469817574
Br        8.11476334602026    4.50814819244168   13.63995193656517
P         5.16498921781150    3.31041068467591   13.98589157080927
N         4.90135043910665    1.61932432185825   10.51552222622353
N         4.21631137996631    0.47030395811593   10.22374071738488
C         5.65385232123926    1.51766559063888   11.59176494188384
C         5.44895536027359    0.17821058497887   12.04725772868866
C         5.97280713930035   -0.52321336856247   13.13323414422692
H         6.68344582035744   -0.03855020183463   13.79434338734451
C         5.56393321358164   -1.82240853429901   13.32193655319950
H         5.94850540818493   -2.39415752021838   14.15261948650165
C         4.65204468437745   -2.42724380694977   12.44813955341884
H         4.35783479639099   -3.45008378812211   12.63081393734485
C         4.12309038491603   -1.76256864577072   11.36340916409728
H         3.42398001314598   -2.23953110158253   10.69409474728938
C         4.53044952620037   -0.44760935013728   11.16342988977135
C         3.40986670959498    0.61306845222532    9.04774422933650
H         2.36572002334261    0.81183116068319    9.32391611962779
H         3.44993311695480   -0.28474446218222    8.42880873342968
C         4.05893237370656    1.83199468885288    8.37075932115441
H         3.34722668584680    2.40516455101392    7.78279267318261
H         4.87012409240767    1.50560267776643    7.71991094262426
C         4.63377866617170    2.64147920011492    9.54089641910331
H         5.55839640827346    3.16976333634761    9.28630276399454
H         3.90089551630607    3.35241702657852    9.94142117887893
C         5.37747565364001    2.87776198704314   15.73117588212244
C         6.62266327521617    2.42281517270496   16.15123312333875
H         7.43965942501455    2.35978097497163   15.43835489319133
C         6.81713020616134    2.06075749406304   17.47203708073774
H         7.78618032129478    1.71407771174802   17.79821890290356
C         5.76777121086085    2.14420692012547   18.37213588038042
H         5.91865216263640    1.86499023480030   19.40445688331141
C         4.51863456851725    2.57466680028059   17.95045155412877
H         3.69851758690557    2.62475916693616   18.65214975408960
C         4.31634891263376    2.93630990160951   16.63203136077565
H         3.33636661790102    3.24658288789591   16.29320220813329
C         4.78513960525161    5.08674003981134   13.87281812031347
C         4.31454222319004    5.85903264047530   14.92549344288802
H         4.16574372819290    5.41794942331185   15.90003606983969
C         4.06808946874904    7.20757375166866   14.72959691446498
H         3.71355497630263    7.80971170499331   15.55312130870231
C         4.28644148609991    7.78698800802317   13.49177794340906
H         4.09951669942667    8.84066541388816   13.34849679180705
C         4.76796062461542    7.02193683552157   12.44010908559509
H         4.96205620032215    7.47764189194944   11.48060815280714
C         5.02204380991613    5.67828607169117   12.63059660658567
H         5.44809558298582    5.07741357217475   11.81450192718567
C         3.56959544660827    2.52743938743453   13.56674447922143
C         3.30186882276520    1.23679949349162   14.01749418742217
H         3.95418226381749    0.78236621164206   14.75098120638485
C         2.21505834658865    0.53664030941952   13.52969559269812
H         2.02086569653834   -0.46543680291761   13.88225222274004
C         1.38551996138445    1.11279411303875   12.58085997409682
H         0.54207945868436    0.56080534860509   12.19297960023219
C         1.63728721927625    2.40072905629021   12.13596384856052
H         0.98397108932994    2.85908643846605   11.40659335641982
C         2.72521696793876    3.10343466874926   12.62140970540921
H         2.92046500779912    4.11047623233129   12.27469411695477

