111
CSD_code = NOPBUS | q = 0 | S = 0 | Stoichiometry = C45H60CuN3O2 | MND = 2
Cu        6.31153674890036    5.26525639175614    6.70115729557384
N         6.87232692821467    2.43221244198870    6.10547832634593
C         6.04527030636863    3.43227811371565    6.02148039129142
C         4.76517537898097    2.95382423896800    5.37150095095029
C         5.08623392220763    1.52690823391309    4.88136986054900
H         4.29580357647621    0.82825442934328    5.14486764516726
H         5.19123510517647    1.51491065534018    3.79745752173705
C         6.40947941747717    1.13298325665252    5.55169649006967
C         8.15350813231121    2.56706711793448    6.73134473655039
C         8.26785794807696    2.40418627859656    8.11765059520689
C         9.53017895900654    2.49738391048181    8.68882017963363
H         9.64014473800411    2.36995545303234    9.75381801294213
C        10.64410984793670    2.76339468430965    7.91963738556576
H        11.61864927133874    2.81571297960177    8.37951175494811
C        10.50370193762012    2.99967753913409    6.56755549938392
H        11.36985826850355    3.26355640179142    5.98344125608431
C         9.26271829303995    2.91785082006839    5.95153490319440
C         9.13572903795970    3.30525569163368    4.49621304959901
H         8.12811684898679    3.07321211468483    4.14840749758183
C         9.31253912252379    4.81938338932270    4.37075898821793
H         9.16062569004562    5.13065301320349    3.33947717857880
H         8.59347317749361    5.33452386606572    5.00445978790220
H        10.30776639667022    5.11845556993035    4.68440990216582
C        10.14239431319627    2.58065895922395    3.60018095199288
H         9.91971772044195    2.78674533197356    2.55550014025547
H        11.15516705381915    2.92034998361363    3.79757613400172
H        10.10811390627687    1.50475627846032    3.75377279991515
C         7.06876151555811    2.22627782104718    9.02120846269021
H         6.17809688339051    2.06652616898735    8.41200448434299
C         6.84040899628150    3.51924281868936    9.80659482183584
H         5.95792556125963    3.42495934341799   10.43580342300214
H         7.69527807845172    3.74696005834522   10.43631230612251
H         6.69015535099805    4.34665345786507    9.11371549670901
C         7.22269730690999    1.04500586712512    9.98187440096581
H         6.28449288815750    0.87070951285465   10.50380847478024
H         7.49473162986816    0.13489903067898    9.45233448161414
H         7.98684318920091    1.24508211494924   10.72762422168297
C         4.32781477020857    3.89051343932173    4.23341213274632
H         3.51741770743737    3.41138479627471    3.68200091592372
H         3.94113787681424    4.81060541784792    4.67446738619844
C         5.44936248105019    4.24668266260407    3.26321843446744
H         5.06704967037766    4.90623662050065    2.48811534018687
H         6.25428306694506    4.76272492002282    3.78226297179441
H         5.85939400687577    3.36343142276785    2.77689773747577
C         3.69577377078037    2.94520878875752    6.48957197729703
H         4.01278032756682    2.25063763147172    7.27161306145610
H         3.65037214898106    3.94237964560945    6.93229913003325
C         2.29938301914986    2.55827656876036    6.02016425069806
H         1.63917692886287    2.49143166236143    6.88129451710653
H         1.89853187105251    3.30767548980301    5.34653290274620
H         2.29472931756364    1.59504440805103    5.51499781312592
C         7.41347983371216    0.54245174695716    4.56408304696571
H         7.52204386790670    1.15887506677499    3.67713543659153
H         8.38605185135793    0.42275687349055    5.03554958837122
H         7.06359268361898   -0.43755525629198    4.24803504072707
C         6.20306395148340    0.10471394681697    6.66561978874612
H         7.13072663066865   -0.05555130920211    7.20877846934285
H         5.42899165282547    0.41054529855359    7.36327045636009
H         5.89927078326759   -0.84148269605524    6.22400937257131
C         6.31268351280141    7.13713317436010    7.41028072199214
N         7.37448000273483    7.83134112159807    7.83908717980807
C         7.34950408539896    9.16277294945119    8.38998441134738
O         8.42444253258322    9.65440635044685    8.72294433137371
C         6.07623680679596    9.74151137394901    8.47330842409556
C         4.91622425020198    9.08916850414794    8.03531128703647
O         3.76252736006309    9.51014754453054    8.04640178357084
N         5.13308413977189    7.76684096689431    7.50753979675742
C         3.93903467263059    7.12729505436167    7.05383486096355
C         3.54545727558346    7.28536194129663    5.72657221069458
C         2.33096229209723    6.74838796897151    5.32609872420399
H         2.00916383913308    6.88084432408428    4.30224366486146
C         1.50425084124074    6.08151725268052    6.21916054356031
C         1.92571100992745    5.93027236713068    7.53215831683184
H         1.28716542978849    5.41991052216719    8.23956581826668
C         3.13404615684606    6.45286055084901    7.96925278306753
C         3.55746556339493    6.34111778883520    9.40108986121213
H         4.56509929891984    5.93202299517537    9.47980610114680
H         2.87333473974116    5.70792460177991    9.96050893637845
H         3.56306183262309    7.33360159680952    9.85083237973331
C         4.40925002456666    8.05034468895348    4.77160447422459
H         4.53265297791152    9.07206716897947    5.12877807649927
H         3.96231242131597    8.07711843881295    3.78109508512704
H         5.39927157608648    7.59833142386729    4.69897991760276
C         0.15870101567205    5.58297110197479    5.78411599265781
H        -0.57894024117650    6.37668176331134    5.90452845397489
H        -0.15989412522494    4.73539951974998    6.38640039929596
H         0.16709040872624    5.29316854427282    4.73527428782005
C         5.95097333041822   11.12562608934294    9.04285013005002
H         5.77484429965078   11.08936500633726   10.11953390547419
H         5.10959633340372   11.63667272807661    8.57964939714936
H         6.87272436640216   11.67612237118418    8.86769909314138
C         8.68606096795249    7.27168212254860    7.74888849143848
C         9.24980801201982    6.65951689344212    8.86494794996472
C        10.54240130520881    6.16637385019887    8.76746914287571
H        10.98735824078748    5.68722425213681    9.62825324337056
C        11.29074837882270    6.32347336006021    7.61153138765456
C        10.72308297919719    6.98865252588756    6.53451921035551
H        11.31613384168837    7.16734900581622    5.64795252037505
C         9.42336576885859    7.46700230030692    6.58320497965679
C         8.83666877460681    8.24271230912886    5.44337002677707
H         7.86470282335576    7.84429514129705    5.15271363397284
H         9.49730383446588    8.22521096572287    4.58043869075039
H         8.69083001796916    9.27763777430883    5.75261192124766
C         8.51217102986940    6.63874920664306   10.16692926346047
H         8.97028473910240    5.94370325833488   10.86618856163672
H         7.46375814281632    6.38031861137180   10.03458545906885
H         8.55170187337450    7.64045074284387   10.59648870169266
C        12.71359634752680    5.85398247632033    7.54474939698656
H        12.90490508818038    5.07923481804051    8.28281712252366
H        13.38567381638057    6.68775656664490    7.74904167472871
H        12.95337432217101    5.46985554063009    6.55521769161378

