111
CSD_code = NOPCAZ | q = 0 | S = 0 | Stoichiometry = C45H60AgN3O2 | MND = 2
Ag        9.69137311397583    8.10717750458923    3.64886870570808
N        12.06571064469048   10.12939238392734    3.50551606447159
C        11.67533070716734    8.93824316013533    3.82959299782645
C        12.84990055835951    8.17201076138372    4.38348311862749
C        14.07041994151209    9.08908932108815    4.15537361804525
H        14.65757951662464    9.20076200735767    5.06483406292923
H        14.72233828616783    8.67040201160427    3.38968302156891
C        13.50697177518912   10.44395815476454    3.69930712787829
C        11.16496221333659   11.12934882429638    3.02054887287085
C        10.48520195041839   11.94740235169426    3.93286122502851
C         9.72128613926188   12.99509891665655    3.43626468127887
H         9.20047250106403   13.64338413667447    4.12220518511157
C         9.61128801188604   13.21685134789100    2.07882671503783
H         9.04106498464948   14.05556331617256    1.71173108683369
C        10.19027716781298   12.33245189077278    1.19204533198911
H        10.03394660016864   12.46508445104748    0.13372823448540
C        10.96341914779238   11.27075533575619    1.64159316327770
C        11.44640691615533   10.23675578882391    0.65166894858093
H        12.16626083000173    9.57764443429087    1.13969372267977
C        10.24458991569964    9.37740581644839    0.24997565846989
H        10.55065718567865    8.59856103031308   -0.44484963756089
H         9.80811143634941    8.90816274728049    1.14194012117809
H         9.47516675267908    9.98478819425375   -0.21773413028515
C        12.10804917104437   10.84216609401310   -0.58713651610827
H        12.55640015597086   10.05243562091741   -1.18603619088004
H        11.38215450694723   11.35858675155970   -1.20872597629884
H        12.88753146360412   11.54851718652141   -0.31102794353419
C        10.45882494794884   11.65521452474520    5.41544480044607
H        11.22871472182571   10.91881628332601    5.65372664567646
C         9.10779812286844   11.01727733817567    5.74932310974299
H         9.05309401250775   10.78080843196939    6.80938234992340
H         8.29065918028082   11.68508751184294    5.49322901189743
H         8.98081721740829   10.09159251413515    5.17196142253193
C        10.69110206172217   12.89479264702278    6.28110442300163
H        10.80539784092456   12.59965526803440    7.32180628913387
H        11.58900103887779   13.42683859497074    5.97529941170931
H         9.85002550927838   13.57954838162856    6.22057737062637
C        12.99256577516032    6.80299792483186    3.70067190222105
H        13.95349096548008    6.37125153614550    3.98574020161246
H        12.20134794253234    6.14825837639007    4.07036444088244
C        12.89699996761021    6.85189526029824    2.17987662937519
H        13.06117023844755    5.85778513874606    1.77191465268369
H        11.90383924702339    7.18115102068341    1.87083182671528
H        13.63998518478931    7.52042417531668    1.74832468100816
C        12.54770617524132    7.97899182627974    5.88694393580965
H        12.52735535358604    8.96111117988444    6.36733518671410
H        11.54708404979412    7.54379229224774    5.98116818282334
C        13.53956904066950    7.08625824714270    6.62131486647261
H        13.32176114512751    7.10397534460149    7.68679023842103
H        13.46398470466983    6.05960032808335    6.27743937883354
H        14.56284450536997    7.42729405378006    6.47932471291704
C        14.14853487995792   10.93561428252564    2.40327788301776
H        14.13215373762835   10.17154160972142    1.63132706646863
H        13.63559266813105   11.82139254392793    2.03525368356533
H        15.18672295614422   11.19595044345332    2.59636985974345
C        13.69121409709250   11.53146496954867    4.75825951924924
H        13.34180728872422   11.20667366652577    5.73441400931177
H        14.74827918619396   11.77269036836383    4.84301199826986
H        13.15669409011508   12.43427357668947    4.47195800678305
C         7.80767422813855    7.08273658454404    3.53986168645313
N         6.62222985841612    7.59271271182802    3.20208480332694
C         5.37304760630462    6.87841281692268    3.17527231091563
O         4.37275567827809    7.50376773890813    2.83124507643923
C         5.46375044648569    5.53002514788328    3.54893218205223
C         6.67173099132020    4.91751017615706    3.91036822563005
O         6.86159633230732    3.74883891033096    4.24053874853863
N         7.81611243706964    5.78956072243644    3.87593380530145
C         9.05756577225224    5.18882326938447    4.24342536753471
C         9.77505161084341    4.46518938890756    3.28845437404609
C        10.93497127478638    3.81695290838651    3.68127675655785
H        11.49213763485646    3.24406568946254    2.95322532106510
C        11.38647554195738    3.86823446352031    4.99410918718945
C        10.65559416033523    4.59200975775216    5.92385459623175
H        10.98750630938975    4.62711600276494    6.95242439971179
C         9.48601040298231    5.25102295389023    5.56986371330313
C         8.66921897212262    5.98357890785465    6.59214613554164
H         7.66048216767867    5.57354547152649    6.61587238454275
H         8.59316290638604    7.04589290662930    6.34022472099483
H         9.11147709714492    5.88923292746508    7.58069539479538
C         9.26614006715019    4.37032017283167    1.88360014633709
H         9.09814110954491    5.36385174925658    1.46441303314539
H         8.31352623362823    3.84174286002828    1.88205693746524
H         9.96780052609815    3.83276484185140    1.25108549122701
C        12.63387057799845    3.13460321649043    5.38808816288281
H        12.92272180003914    3.37205054511927    6.40923292717820
H        13.45666047368200    3.38676801749206    4.71999824944828
H        12.46983785609650    2.05982443242548    5.32064749784618
C         4.21010730909625    4.70126319959237    3.55426504730251
H         3.51282532689171    5.09070771550859    2.81558311975998
H         3.72442788859686    4.73389140672348    4.53140165533837
H         4.45617898892992    3.66476759362454    3.33329908989792
C         6.55477264680408    8.97052812892834    2.83663149137441
C         6.24846282981913    9.91983471961363    3.81085023881501
C         6.15391664199125   11.24966337539264    3.43084692582515
H         5.89678959081768   11.99313222168916    4.17303552213277
C         6.33622437823382   11.64120228717362    2.11260968132893
C         6.61156026478175   10.67238699970511    1.15972496362740
H         6.71618015743305   10.96249224895606    0.12327050698476
C         6.70824684479363    9.33097933880996    1.49891638818244
C         6.87663230917687    8.27100345582480    0.45328695668585
H         5.95754539128630    7.68773922002822    0.39642475567287
H         7.68632913773808    7.58683558719378    0.70587220049846
H         7.07264628685618    8.70942589986305   -0.52164413402217
C         5.94458484586657    9.48454659225119    5.21173135418662
H         6.72680193026995    8.83573856754645    5.60511837246961
H         5.01496177907173    8.91549166280419    5.20682171735748
H         5.82730907903964   10.34032756885679    5.87135140547250
C         6.15485295657006   13.07614948661623    1.71715244257802
H         6.51381080201577   13.74386782616169    2.49717232118674
H         5.09509911110599   13.28139394502606    1.56326957364849
H         6.67767398217743   13.29455645879921    0.78927780119307

