101
CSD_code = NOPCAY | q = 0 | S = 0 | Stoichiometry = C42H45B9NP2RhS | MND = 8
Rh        1.75898653624660    3.27098481582025    4.24039253813550
S        -0.33152319607925    3.12058247384396    2.65395947475249
P         1.07293870914490    1.98930865007311    6.02873920080250
P         3.34049256324189    1.79177623765220    3.40528844097389
N         3.45450822749103    5.63124575364508    5.23289601906706
B         2.21908681503127    5.30720895369357    4.44816270783327
B         0.90989991987481    4.22065663499971    1.75875236297444
B        -0.79517052218624    4.43552110899198    3.91868883681919
B         0.54956110764012    5.22207486027191    4.84856755227411
H         0.18186451503829    5.44647774253484    5.95276212195893
B         2.19683517604592    5.03289914455197    2.75104861175213
B        -0.73035566332735    4.97917748322709    2.15413623102920
B         1.29544704693033    6.46772248486053    3.63474684077318
B         0.74946578683390    5.91458528325353    2.05810136258202
B        -0.39277614875244    6.05514331729259    3.49731894149796
C         3.50501247503167    6.35400454657353    6.39429190926368
C         4.70366012361651    6.56064267618281    7.05470744297495
H         4.68805191365547    7.12150428879775    7.97692859913349
C         5.90471811716079    6.07869021836288    6.56113672316202
H         6.83254945402723    6.23651857071515    7.08516984399657
C         5.85381124053522    5.39331119580816    5.34777938275334
H         6.74569324263704    5.00694336972732    4.88183979417506
C         4.64760119435200    5.20331967879979    4.73524515174397
H         4.59152071273944    4.66747436019063    3.80244624150485
C         2.25619645907114    6.90891212324506    6.98931656945949
H         1.62734778202587    7.35704472427343    6.22552353854259
H         2.50197580787673    7.65369945285731    7.74187860007528
H         1.68390045224449    6.11414230620194    7.46563346478083
C        -0.72859690152713    2.02950519900663    6.39117127312017
C        -1.62947935734134    1.14752863217710    5.80625730668588
H        -1.27276163517667    0.34582684629473    5.17756583968437
C        -2.98837355916273    1.28082319817645    6.02925750627193
H        -3.67583769468815    0.58497995791600    5.57012678156983
C        -3.46888908349821    2.30159059085886    6.83086140271784
H        -4.53049466417434    2.40659621346832    6.99974944786963
C        -2.57962680711682    3.19165052621856    7.41020848913881
H        -2.94640237963003    3.99606488215362    8.03116116796720
C        -1.22284244709216    3.05944826476174    7.18869550366103
H        -0.53683015810199    3.76436671918781    7.63505922525985
C         1.66283213577923    2.38914914801669    7.72060856186069
C         2.68635503466626    3.31345801460461    7.86741457207668
H         3.10028566573556    3.76754759844470    6.97969706223122
C         3.15887643534692    3.66031422997018    9.12077550314110
H         3.95667231173719    4.38327032231491    9.21591923311968
C         2.60283728321091    3.08194804126301   10.24850189307881
H         2.96649551501062    3.34612578077154   11.23080603808566
C         1.56753811517346    2.16909472494361   10.11532946308477
H         1.12411796212729    1.72588123710115   10.99546606059334
C         1.09544242544743    1.82664253125295    8.86182019434360
H         0.27348806899580    1.13065892471336    8.76533147149764
C         1.32234529698724    0.16985435300203    5.97714836330238
C         0.98969687495885   -0.44087308903527    4.77024224304343
H         0.64076933399530    0.17677179661243    3.95362704581805
C         1.11428712261538   -1.80601686388752    4.60404895002080
H         0.84702050709784   -2.26148063060654    3.66111362128505
C         1.59235479397140   -2.58381367531251    5.64609398023218
H         1.69189295389775   -3.65260564589465    5.52511781518375
C         1.95945762168786   -1.98188108888832    6.83691677335050
H         2.35294423737050   -2.58146477660079    7.64524280010459
C         1.83062003480216   -0.61352361349406    7.00408650748805
H         2.14275184415323   -0.16299818661130    7.93408110865631
C         4.14442328042301    0.76093739067627    4.69297612484846
C         4.26630001625282   -0.62140687067111    4.66828189187272
H         3.89361613820903   -1.18769429791969    3.82849662174266
C         4.85212834472614   -1.28803551507932    5.73090603056426
H         4.94244408551298   -2.36413086422470    5.69863967498864
C         5.31429698246042   -0.58885688366900    6.83196865875971
H         5.76495264903210   -1.11630514257602    7.65984282557450
C         5.19064886573159    0.79072051537597    6.86982267188275
H         5.54250225875729    1.34611263712853    7.72752737698845
C         4.61004552324833    1.45460842831427    5.80774487613989
H         4.51439315755279    2.53211783347355    5.82495407520930
C         4.84127780818987    2.48151527049891    2.58599647506607
C         4.65166599196295    3.01734082257856    1.31302788261516
H         3.66706094062315    2.98052797231350    0.86915784469695
C         5.70414876481367    3.58703526413652    0.62384172365453
H         5.54245495808857    3.99812093602821   -0.36166194585014
C         6.96558785261389    3.63194317737204    1.19660464831645
H         7.79047121527498    4.07687858801090    0.65988374318864
C         7.16423904317513    3.09783861790674    2.45786668020207
H         8.14859006117032    3.11896864947734    2.90440807555260
C         6.11010996322779    2.52757720453961    3.15172297574196
H         6.28296642289936    2.10998433136371    4.13298323160554
C         3.03702057566024    0.54864018630712    2.07961073926094
C         1.76994544643062    0.39115400676685    1.53687399949522
H         0.95562054441062    1.00202962838302    1.89803186022396
C         1.54577053982806   -0.52421799109584    0.52228540195393
H         0.55417862287817   -0.63479693292935    0.10826984763169
C         2.59054095883436   -1.28968203119249    0.03595720181023
H         2.41863070585058   -2.00589534996691   -0.75430432151940
C         3.86437728203912   -1.12517118190836    0.55780768193998
H         4.68634853896454   -1.71085750754941    0.17149605295408
C         4.08871262045599   -0.20878185005115    1.56717653018986
H         5.08778614021386   -0.07300243818146    1.95835518428273
H         0.89900859392536    6.68497587070735    1.17472686253833
H        -1.14866268469534    6.92745246585455    3.75349180423235
H         1.65562494781204    7.58790256824973    3.77887733376925
H         3.21400989576075    5.19468615696104    2.15039992484268
H         1.19341779494525    3.75855691670213    0.70762428057189
H        -1.65491676114531    5.02412090002750    1.42684517616228
H        -1.79278482164091    4.13467589861157    4.47642056586881

