85
CSD_code = NOPFUV | q = 0 | S = 0 | Stoichiometry = C34H44N2O4Pt | MND = 4
Pt        3.86547024547966    1.50740917844123    2.50169968958180
O         3.60305351164006    0.08821108495139    0.97348275966660
O         5.23301054236052    0.32806639444124    3.33912883055415
O         5.61860507069536    5.16986727072543    7.80138683793153
C         3.88550746824372   -1.88234993475285   -0.33534902445459
C         3.97835797566382    5.17375425923162    5.62024548967232
H         3.97777364370898    6.01471722288885    6.29544737023232
N         2.53575636359986    2.76696418542973    1.77080756276164
C         5.71606932816636    4.05860902264939    7.04321361401655
C         4.01639079475538    2.94959831548431    3.88098649706722
C        -0.52378260198716    4.63102829034582    5.14381385711893
H         0.54397124904619    4.54201140376824    5.33182896785659
H        -1.01234214592796    3.73052243156133    5.50764732192116
H        -0.90509104149911    5.48131423565250    5.70396732442253
C        -0.09363528414952    6.03995728709245    3.13510611293724
C         6.19633949168277   -2.83098378237502    4.27333877268404
H         6.00307431911933   -3.51323570681949    3.44971237042839
H         5.27346252226323   -2.69980493578693    4.83385010915824
H         6.93503490498774   -3.28856038173359    4.92837983149600
N         1.44957030702518    4.67336428684799    1.85559432111615
C        -0.79091912675243    4.80158762144764    3.64598118743753
H        -0.38626943511950    3.92369675940566    3.13389740676127
C         4.83082799900014    2.99301669943399    5.00280706577085
H         5.49539614325285    2.17229979361127    5.22895875757219
C         4.22784668176626   -0.99880730815750    0.87840486037826
C         5.63125707972969   -0.79666650061376    2.91671984882771
C         1.01757232217941    3.99901344957472    0.74462768882441
H         0.27591481871048    4.41439566952692    0.09391758926343
O         6.46494604202782    3.15249959634710    7.31856258349279
C         0.99892640675970    5.95436329058037    2.26890218317426
C         4.81876642684323    4.08780542732409    5.86875652056920
C         3.15412030765089    5.16561674251618    4.51406401614039
H         2.50370581163847    6.00659362404533    4.32113368182590
C        -2.29313283361176    4.85632433780962    3.35976153706148
H        -2.77219380894390    5.65543710758770    3.91899539582525
H        -2.75780416524227    3.91589210232026    3.64609251963254
H        -2.47419450050801    5.02164261553121    2.29968172101212
C         0.14778887545823    8.43678079779942    3.09569561018226
H        -0.18229752177460    9.41064808067203    3.42506992278576
C         5.13772151855163   -2.06905726292013   -1.19886557318747
H         4.89212009939331   -2.64769057367036   -2.08758540991849
H         5.92020337497679   -2.59297375262114   -0.65655159510134
H         5.52810112362826   -1.10331996685527   -1.51313618677832
C         1.66821633016932    7.08815259981961    1.80185783990734
C         1.22316722211914    8.33037195779772    2.23428612849222
H         1.72585068789339    9.22399222139279    1.89934950285673
C         3.17196335792671    4.06727700267774    3.65539619318547
C         6.45476271428814    5.20426020929338    8.94522827200716
H         6.22878572314655    4.36514218289592    9.60702583509986
H         6.25277716070582    6.14929974256389    9.44336128440161
H         7.50484497974496    5.14217234352252    8.65084895999010
C         2.37633539963770    3.89886760343453    2.46403445470326
C         2.86113167650025    6.97434146149016    0.88266333863372
H         2.98347348161492    5.93062577896222    0.57885478601910
C         7.03871885226503   -0.59499683898339    4.98477335543783
H         7.80199024090144   -1.06974193953416    5.59703706807005
H         6.15241005562333   -0.43709656530060    5.59361544417864
H         7.40515664168882    0.37612406978520    4.66274690361448
C        -0.50435936211610    7.30275343074815    3.54118524484640
H        -1.33875764319794    7.40105926624427    4.21760941034691
C         1.69929468496693    2.81763563779333    0.70385708492402
H         1.64156328590009    2.02004883032766   -0.00944735531825
C         3.36345401765563   -3.24020146116651    0.14606676264738
H         2.49985217432279   -3.10580219874485    0.79401101920439
H         4.12312917399947   -3.78590184365858    0.69908291883674
H         3.06331176710725   -3.84504864001113   -0.70776009102094
C         6.71265292520664   -1.47594012424332    3.77676979272707
C         5.19761029030930   -1.46491698195642    1.77138361441213
H         5.64813084799592   -2.41840571626947    1.55703268716680
C         2.66294749581274    7.80748686269408   -0.38545533254191
H         2.63000439183014    8.86964974825216   -0.15861108109177
H         1.73450860448039    7.53251757197544   -0.88166946137775
H         3.48625603414481    7.63293801057344   -1.07393642755937
C         4.13329689285395    7.39564627925137    1.62297112137960
H         4.99374901097122    7.30217479766305    0.96499157140183
H         4.29504880634351    6.76136858310596    2.49187201539761
H         4.06318408341654    8.42844921436467    1.95558347394926
C         7.98266474798441   -1.66361566813444    2.93914004826372
H         7.81121917403567   -2.32572730912082    2.09442940281768
H         8.77009697202392   -2.09327133415571    3.55513490392652
H         8.32757383657323   -0.70469857162979    2.55884355691157
C         2.80032134856676   -1.19821318202130   -1.17054151817228
H         1.90227782050363   -1.04914342291030   -0.57552908182709
H         2.54999190677629   -1.81008272790068   -2.03464634037883
H         3.14559188280460   -0.22720935946912   -1.51782725463116

