81
CSD_code = NOPFEF | q = 0 | S = 0 | Stoichiometry = C36H37MoN4P3 | MND = 7
C        -0.00466365348568    5.51543907002173   15.88221116714103
H         0.78396363726303    5.19443218469885   17.83624942053808
H        -0.92178243197486    4.60804966300918   17.59179528736426
C        -0.12989782478843    5.27311973131388   17.25337396322406
H         0.99938021414365    5.61011456940156   15.47733460598600
H        -0.70506950655334    5.03160129878420   15.20429822534309
C         0.66103256188070    6.98180156039876   20.09491255101625
C         0.84618049212032    5.64604050934125   20.44890769120817
H         0.04253414076466    4.93893391838667   20.28523000942682
C         2.03534662036080    5.22900849681929   21.01418182346470
H         2.16614284394891    4.19219967368900   21.28916356406117
C         3.06018910047997    6.13821778102950   21.22370456195196
H         3.99244402558211    5.81191421546861   21.66090154978339
C         2.88688576557130    7.46467745037278   20.86946160846518
H         3.68474575152772    8.17579234216308   21.02785400465919
C         1.69580752045449    7.88628895261706   20.30529679506292
H         1.57879577020905    8.92519057052784   20.03349429982494
C        -2.06106118699839    6.55937706737432   20.31974932527879
C        -3.07705457068423    5.78414137601860   19.77803358279039
H        -3.16122557589653    5.68083516220206   18.70663787849496
C        -3.97970788814875    5.13866713556219   20.60708286985371
H        -4.76585068623882    4.53553621222092   20.17697667747743
C        -3.87263512343321    5.26431559373584   21.98064500659358
H        -4.57518559540237    4.75972037786221   22.62775998822303
C        -2.85795865801177    6.03517469317752   22.52827306418768
H        -2.77030953459181    6.12997037974120   23.60121644186156
C        -1.95561793163121    6.67872831097359   21.70475284054408
H        -1.15371747295810    7.26521756049941   22.13330803028821
C        -1.20297271842051    9.15992940278506   19.84025308298245
H        -2.29788175750382    9.23950075899401   19.90388062966740
H        -0.78524124893271    9.30943587382234   20.84180826886378
C        -0.69445806190256   10.19737254366560   18.84750725843323
H         0.39955633550402   10.19013172600843   18.78302798999178
H        -1.02866583095015   11.20381694927552   19.12136557694420
C        -2.97072677348674   10.46434046341689   17.17700542153509
C        -4.09319651540635    9.68567095972699   16.92408112984121
H        -3.97450411169949    8.62645140191145   16.75053084814233
C        -5.35162729242998   10.26149277389667   16.89488945130767
H        -6.21836569927755    9.64817998687550   16.69779290889960
C        -5.49663154243701   11.61976232956023   17.11767675302342
H        -6.47746639671360   12.07153012216618   17.09501701083459
C        -4.38112617435257   12.40347475663873   17.37053627065107
H        -4.49394173923915   13.46412988531561   17.54449761419880
C        -3.12399971344481   11.83140475629619   17.40095896174030
H        -2.25917897322496   12.45137139578157   17.59993104342784
C        -0.40238029674649   10.70366180762310   16.00271058331092
H        -0.70376573144632   11.75611675584088   16.03565987486387
H         0.65861415164306   10.62806099239856   16.26658705199802
C        -0.68376501402202   10.09371086893517   14.63572058278247
H        -0.08323892239749   10.55698332944413   13.84526447255340
H        -1.74689152745403   10.24069976900856   14.39631416647942
C        -1.39027564554514    7.86458135102352   13.14330371827407
C        -2.50000434443434    7.03264640970653   13.19821562414073
H        -2.79171660314230    6.58758268250315   14.13756281008655
C        -3.23036987887246    6.76767700646248   12.05145545580422
H        -4.09164521765251    6.11779418180400   12.10272960078269
C        -2.85631319787801    7.33185667829701   10.84488963903030
H        -3.42438332166721    7.12404434662351    9.94986444328065
C        -1.74696969903530    8.16205866835698   10.78302150463013
H        -1.45122545767485    8.59963455945204    9.84018630332616
C        -1.01654610732230    8.42814565420389   11.92417266673155
H        -0.14198693553749    9.06314981506260   11.87237862772600
C         1.23766331499911    8.05075256389166   13.98843217144813
C         2.27576901159457    8.92309823451381   14.29565413366163
H         2.08940686724805    9.81061584110238   14.88272330903874
C         3.55947576488729    8.66386892699390   13.84872373891612
H         4.35931218672340    9.34762213059737   14.09382703583484
C         3.82142914672712    7.53167577726665   13.09730664712034
H         4.82529488778089    7.33075977835711   12.75292223988627
C         2.79312926352038    6.65482772861138   12.78946617640988
H         2.99316348172898    5.76939627403451   12.20320884702366
C         1.51130774762455    6.90905941748069   13.23633458339700
H         0.70452255766852    6.22742376129453   12.99714244116238
Mo       -0.77221294628624    7.43636635021339   16.86350164186492
N         0.99516475902214    7.94506163613413   17.12204060043067
N         2.07290990769395    8.21417549462631   17.27405906504851
N        -2.46337892109292    6.74499003144197   16.58369880543882
N        -3.44752289470636    6.23694489942604   16.40119743187340
P        -0.87856095106603    7.42910843489105   19.23879272717332
P        -1.32876609860333    9.67171432714655   17.20651239651323
P        -0.44222592586746    8.24843157167900   14.65225182735688

