101
CSD_code = NOPHAC | q = 0 | S = 0 | Stoichiometry = C54H44P2Pt | MND = 4
Pt        0.00486786043573    0.00272354655690   -0.00138234229797
P        -0.04695471539767    0.94758819078190    2.05125205824554
C        -1.88692118506505    0.52094261156019   -0.39081112507189
C        -3.06016722689845    0.74404507167206   -0.59989476651509
C        -4.43144575053339    1.00015735333775   -0.82841804270946
C        -5.02078142470761    2.18842300798085   -0.39519700269066
H        -4.41324609869329    2.92477162464800    0.11319304030172
C        -6.36412687415581    2.41953395476153   -0.61403883810337
H        -6.80832741557424    3.34590759344242   -0.27416914558070
C        -7.15500475415042    1.48280849618641   -1.26840977495981
C        -6.56341164170687    0.30005455381614   -1.69999714893785
H        -7.16691064002079   -0.43810537038233   -2.21188220756562
C        -5.22260358610438    0.05610727437462   -1.48651971727983
H        -4.77054519121448   -0.86726876314568   -1.82430880413202
C        -8.61819116277109    1.72670672320430   -1.49028216704667
H        -8.85001416374614    2.78753079845783   -1.42494292426474
H        -9.20629809802020    1.20365041685459   -0.73445600779976
H        -8.92790055928893    1.35857232088187   -2.46685456712459
C         1.35433263122845    2.09951780430584    2.11816714628386
C         1.69417513945577    2.68377844783143    0.89974647238144
H         1.10759962696305    2.43100959356041    0.01467436545314
C         2.76748169866245    3.54822092683820    0.81859562089968
H         3.03403078106090    3.99760561685393   -0.12676039511585
C         3.51320278376563    3.82571294722787    1.95475153073047
H         4.36136239206694    4.49187832521770    1.89308979793822
C         3.18185430226003    3.24084473828977    3.16562019057057
H         3.77216701233693    3.45121198773257    4.04587761832559
C         2.10244730089784    2.37750676507898    3.25301349214339
H         1.85343498138481    1.91060813497449    4.19556875074105
C        -1.48480160964114    1.97273302338988    2.48909024621249
C        -1.43565349503228    3.35625168445374    2.59380281253456
H        -0.49549937382385    3.87566681912584    2.46572540739895
C        -2.59358731696433    4.06658021008297    2.86273657862363
H        -2.55436736685355    5.14332297469843    2.94594600407730
C        -3.79866369548356    3.40301247859090    3.01811269450307
H        -4.70042135280121    3.96249817751209    3.21993713227548
C        -3.85232832471803    2.02177995916434    2.90403080482843
H        -4.79513671636258    1.50606121623442    3.01080298449209
C        -2.70073331684473    1.30933844735040    2.63683788210173
H        -2.72935795390685    0.23256282305528    2.52963073393754
C         0.12890014728367   -0.10153507682640    3.52283045825944
C         0.64159573198735   -1.38445138245804    3.37064360212568
H         0.91505188029631   -1.72829370019828    2.38016374971635
C         0.81078812297910   -2.19872284785746    4.47577931824938
H         1.21271735919680   -3.19391238223310    4.35517829196920
C         0.46459328709215   -1.73715215568711    5.73503579873628
H         0.59675047522489   -2.37194773753750    6.59893981505067
C        -0.05665399397477   -0.46184891672142    5.88924114932763
H        -0.33085804736484   -0.10532535540582    6.87169937524114
C        -0.22810729577598    0.35655208625402    4.78810071414695
H        -0.64516158077287    1.34822222579081    4.90441967850588
P         0.05042853917599   -0.94315619145640   -2.05333171587826
C         1.89744674854899   -0.51653870634127    0.38284061925516
C         3.07026481080271   -0.74198482710409    0.59196585907623
C         4.44034052385841   -1.00187643822697    0.82391665606176
C         5.02903903717496   -2.18738306531716    0.38217764929278
H         4.42229091971666   -2.91699537830536   -0.13698614212924
C         6.37006444863275   -2.42511481660367    0.60759725923607
H         6.81366958078191   -3.34929964269855    0.26087432173074
C         7.15928750394311   -1.49792848578125    1.27728656633742
C         6.56849707004170   -0.31776140674468    1.71697318750024
H         7.17109460040126    0.41346967892789    2.23968047882276
C         5.22986485754310   -0.06725659424320    1.49710631115991
H         4.77837644165924    0.85379683583194    1.84188530742205
C         8.62019920495656   -1.74905679917879    1.50607830714989
H         8.84815593683317   -2.81043486198358    1.43583535604739
H         9.21494412158113   -1.22403158245028    0.75681874069508
H         8.92558203244305   -1.38794971557148    2.48657691696738
C        -1.35706994617807   -2.08791966214903   -2.11440333314405
C        -1.68773928615050   -2.67651303263168   -0.89542696475463
H        -1.09096616385318   -2.43121267992232   -0.01510385214606
C        -2.76472363825996   -3.53566158960558   -0.80758298372409
H        -3.02413053716854   -3.98822734011573    0.13824814717672
C        -3.52356635910274   -3.80346385255263   -1.93741580463462
H        -4.37462156189343   -4.46543035906621   -1.87037294621811
C        -3.20167266268357   -3.21396245352004   -3.14854210656437
H        -3.80233198784265   -3.41644044638484   -4.02366391444008
C        -2.11852284199458   -2.35586755904403   -3.24274539695632
H        -1.87733007533388   -1.88515361594936   -4.18541104327674
C         1.47998398615752   -1.97688575855404   -2.49868548072904
C         1.42016661299185   -3.35926604710812   -2.61340642972658
H         0.47649543918658   -3.87259929187452   -2.48671564985690
C         2.57207102494449   -4.07630726545091   -2.89029730106830
H         2.52454228499093   -5.15207760927204   -2.98139616318552
C         3.78172566654539   -3.42066418220940   -3.04383792607885
H         4.67869383805023   -3.98545089900012   -3.25218683221845
C         3.84602202083597   -2.04073667606918   -2.91991038910216
H         4.79238416263966   -1.53130190971515   -3.02545434295960
C         2.70040768024455   -1.32155190379912   -2.64491873206863
H         2.73732114689410   -0.24584812032638   -2.53000305395747
C        -0.12333657963788    0.10764036292596   -3.52367019241091
C        -0.61026438288643    1.39990132747034   -3.36658459820316
H        -0.86646992674866    1.74887316543891   -2.37319037482761
C        -0.77589644279004    2.21693270434666   -4.47021890526158
H        -1.15752530764228    3.21963525362200   -4.34599697136272
C        -0.45212914599756    1.74838943433338   -5.73285844297707
H        -0.58198717631938    2.38515080492787   -6.59566473153135
C         0.04400013274319    0.46369020492718   -5.89203775833458
H         0.30095472341446    0.10193526001812   -6.87723884285477
C         0.21230869825209   -0.35727315544929   -4.79231939218876
H         0.61048864019369   -1.35626837456969   -4.91219330834944

