114
CSD_code = NOPMEN | q = 0 | S = 0 | Stoichiometry = C65H37Cl4N5O2Zn | MND = 5
Zn        4.33580267316517   21.06250209295280    1.77098727714297
Cl       14.36439435112319   16.77371453288256    4.83412365119022
Cl        8.60566073177132   11.08677236853866    3.24475942553692
Cl       -5.33159531363824   17.00707282653030   -1.36900229807111
Cl       -5.44010779481911   25.22381114066371   -2.14692572124404
O         8.55668267263657   19.25645287092258    3.00450347483736
O         0.25678433161166   22.79714781248390    0.05834655396224
N         6.16662097219490   21.85024036845380    2.19027568394078
N         5.09996728644127   19.17771238128622    1.84053073783288
N         2.67863265213616   20.21650319891304    0.94562391659271
N         3.64893530104236   22.92241910794711    1.31420188649004
N         3.62189938862705   21.05426372511787    3.81811923289646
C         5.60960338237498   24.23390498594044    1.99629955563593
C         6.46719418477706   23.17456958736895    2.30604293371424
C         7.79889897177260   23.32550275286964    2.81499293331618
H         8.28370370815147   24.25964408939323    3.02196404832781
C         8.29992290424786   22.07403161882206    2.98413116107208
H         9.26954075024182   21.78304357766935    3.33820821618562
C         7.26725524740384   21.17199210585222    2.58936611842181
C         7.36150043429135   19.77101420328738    2.60358734333734
C         8.78561375418260   17.92151437839370    3.04059098489617
C         7.84558247224819   16.98738511528042    2.70429469024976
C         6.57219568996441   17.47173527004207    2.27552732909704
C         5.38775588929577   16.89954845225516    1.88700021491994
H         5.16482735374183   15.85619476538662    1.78718537242104
C         4.48630486633758   17.97203537804141    1.61994657372532
C         6.34835381045242   18.89706276838224    2.23653142251243
C         3.16962483957573   17.82452165799214    1.16928074370330
C         2.32511637422725   18.89497562333555    0.85340857304866
C         0.97375211714257   18.77210213128643    0.41380592246427
H         0.43576838749064   17.85290503171236    0.29524385263628
C         0.51395970344594   20.04687549914646    0.20206815173595
C        -0.71719405217374   20.62666875502251   -0.23143784767778
C        -0.77256004815461   21.99123346268132   -0.29744632145960
C         1.44717125682623   22.29663113548626    0.48990659297208
C         1.60685859350384   20.91998863808946    0.55723546514127
C         2.42789382256691   23.24297058077420    0.82778604120295
C         2.28870306478925   24.65801406137557    0.70628072630969
H         1.41841296694485   25.16095602953768    0.33222535818819
C         3.46161668027374   25.19465734999636    1.13262803988704
H         3.73523778465386   26.23123313926682    1.16687775774257
C         4.30392866617005   24.09989083232434    1.51692929661790
C         6.12652212177013   25.60692435890795    2.18293724661188
C         5.54205813758439   26.46047190984739    3.11401310396081
H         4.70726375308435   26.10859475775927    3.70374426738069
C         6.02746015180259   27.74325331534786    3.29209479541497
H         5.56821272895158   28.39504863124746    4.02128435236560
C         7.09852894763574   28.19288157402003    2.53825602833819
H         7.47551542337091   29.19551155664199    2.67608001395243
C         7.68305220152555   27.35196123971469    1.60582913450538
H         8.51597709449271   27.69956136916105    1.01210951719317
C         7.20330709009476   26.06681448694120    1.43070003994280
H         7.65280595241193   25.41168597519033    0.69885613180275
C        10.15795751254653   17.61987085171927    3.46966371207656
C        10.75417597381162   18.40231682288399    4.45810609206845
H        10.19306983376518   19.21013286584188    4.90248043783721
C        12.04388471454447   18.14757829891003    4.88087487365997
H        12.49817044773840   18.75020566648918    5.65167102395991
C        12.75398087940173   17.10557587847551    4.30545454845135
C        12.18810812457108   16.33172137392577    3.30299364854810
H        12.75792822557813   15.53616609521407    2.84958447733827
C        10.89830518050975   16.59274231049273    2.88556420240350
H        10.46790040437673   16.00454619028501    2.09069598315854
C         8.06176548432357   15.53873775936504    2.83359995679973
C         8.52515226832205   14.98892324108795    4.02697253318953
H         8.74980963141168   15.63733645470578    4.86044990451412
C         8.69354914839369   13.62439139433842    4.15722523653405
H         9.05185144032252   13.20229942178915    5.08292731178743
C         8.39304265473472   12.79564256441810    3.08717603619367
C         7.92239184633197   13.32091664826269    1.89467796786890
H         7.68992096985641   12.66583942002458    1.06971086266877
C         7.75489784405711   14.68764577049769    1.77518955657594
H         7.39885573107382   15.10354005775140    0.84487910558427
C         2.64421519800519   16.45445114553422    1.00038856011296
C         2.56466423107955   15.58481972482252    2.08471431722254
H         2.88458818389019   15.92409215009690    3.05996357496615
C         2.07188198390383   14.30278526472532    1.92380137990920
H         2.01358985587907   13.63924095799864    2.77459104428149
C         1.65230769298190   13.86918285094108    0.67739987735049
H         1.26786759545038   12.86771891886301    0.55248134552380
C         1.72951038124276   14.72563058813530   -0.40830042830592
H         1.40810192122145   14.39076465444381   -1.38404718105815
C         2.22083721774641   16.00804523224566   -0.24873478778861
H         2.29487409651961   16.67199351810359   -1.09784325470942
C        -1.86353554155631   19.75472874333881   -0.52702108545178
C        -3.10029473797542   19.96927869443206    0.07746218340937
H        -3.22425974954728   20.79903763764474    0.75691170011951
C        -4.16627106096403   19.12918267883510   -0.17798087494075
H        -5.12213645598521   19.29827780150341    0.29230194290737
C        -3.99846328568095   18.05907228935535   -1.04329318808538
C        -2.77455336777991   17.82223519263256   -1.64785294233777
H        -2.65592549684344   16.98513510501844   -2.31785131790827
C        -1.71337940763502   18.66727888868369   -1.38371184116704
H        -0.76066731380375   18.49450327234682   -1.86070964756113
C        -1.92906214133938   22.76755885663671   -0.76475441100804
C        -2.23867177274142   23.97616718806071   -0.14169281683023
H        -1.63213635202273   24.31514326266810    0.68415827455565
C        -3.31457057671104   24.73361149501524   -0.56073460985669
H        -3.55513953819764   25.66403380298333   -0.07077265826089
C        -4.08786515421636   24.28705548351481   -1.62079968593135
C        -3.78179681075172   23.10000185542390   -2.26980991958681
H        -4.37982688234554   22.77304128945895   -3.10564775886161
C        -2.70440673341815   22.34837992935694   -1.84518026737033
H        -2.45449631177469   21.43722978009435   -2.36515403617014
C         3.87574428163327   22.07268966195291    4.62905329570144
H         4.42081896421965   22.89758265550813    4.19379561751924
C         3.47781346008621   22.09612426320000    5.95579251261221
H         3.70911006718571   22.94640989747848    6.57798052145873
C         2.78246445741861   21.00887546770986    6.46081811284399
H         2.45661677002843   20.99066622641855    7.49041288303038
C         2.51515654987619   19.94562176952502    5.61317648017963
H         1.97578579919391   19.07851779041567    5.96083583852240
C         2.95531189456221   20.01432163580478    4.30137836706789
H         2.76865534171601   19.20845871411734    3.60646770975864

