129
CSD_code = NOPMAJ | q = 0 | S = 0 | Stoichiometry = C68H48F4N4O4Zn | MND = 6
Zn        7.92216639737117   12.47588689223728    6.19705855771368
F         7.44327863478203    9.63375098262557   16.35306645490415
F        14.08387514187126   13.52551995221635   15.16572744332352
O        10.65551757204875   12.88297001889407   10.05487728758402
O         8.81026579107735   10.41879579969685    5.67856402220639
N         6.05098422315189   11.73356790844712    5.83967914971899
N         7.71554485675396   11.92936891346081    8.11595628347545
C         5.42319706393111   11.68650094726575    4.64118148882866
C         4.15427536929300   11.03693338569703    4.76051911051186
H         3.47168685658016   10.86593383038950    3.95084406801163
C         4.02736122083313   10.68800921703284    6.06515185169202
H         3.21450291872114   10.16439504680053    6.52979253600259
C         5.21942419585921   11.13497410360092    6.73327650376983
C         5.47917963504782   10.93780949310802    8.09225838399286
C         4.43395691240147   10.28919002916101    8.91139111486647
C         3.19100327639583   10.89328294490771    9.07912801552667
H         2.99877199042488   11.84464139649841    8.60361961908374
C         2.21620458310364   10.29172042961193    9.85399067264765
H         1.25681755965380   10.77275316833046    9.97922163167734
C         2.46730639895019    9.07676706426867   10.46948165705158
H         1.70525531196251    8.60681583264018   11.07345557739987
C         3.69997024921612    8.46677608961884   10.30652745787211
H         3.90016400727813    7.51747356614963   10.78200992019865
C         4.67725657751526    9.06877011331546    9.53526480179378
H         5.63673948517720    8.58977552094868    9.40133920850114
C         6.66134395769758   11.31722721246846    8.73843507814650
C         6.92910643133334   11.15886900809781   10.12978373447994
H         6.27028177742856   10.71235695196657   10.84758724898976
C         8.17405668393045   11.69370033673449   10.34964849415049
C         9.03552669298954   11.83930681514823   11.48081790036996
C        10.24073347966149   12.44730609747811   11.26977974671748
C         9.88085935769665   12.75671170852388    8.93977228465282
C         8.62925296759695   12.16132586983237    9.06335421975856
C         8.63080593931573   11.27747976437637   12.77858113923126
C         7.38241840487190   11.58285413841079   13.31498796551923
H         6.73281073559543   12.26786596244852   12.79176243484270
C         6.97727881045628   11.03601070887446   14.51809617198224
H         6.01529257875614   11.27013055605727   14.94607771930019
C         7.83194389761555   10.17172591507894   15.17704637838872
C         9.07362826781918    9.84078222309527   14.66432572531596
H         9.71101631360488    9.15703585629607   15.20214994282748
C         9.46620741527996   10.39604359893880   13.46216173639285
H        10.42805438149495   10.14168601297619   13.04328320666765
C        11.23790009162378   12.72783311420456   12.31257596244225
C        10.85984905285517   13.15597935092563   13.58493068012291
H         9.81587699076001   13.29457121501330   13.81685359503556
C        11.81320032941391   13.42269423031100   14.54743076450968
H        11.53415683790349   13.75399577044787   15.53494886241237
C        13.15073941741772   13.26910282412550   14.22634727879610
C        13.55699789186410   12.86939776719537   12.96616421297492
H        14.60841892579825   12.77064089380862   12.74702776017797
C        12.59428162482002   12.60444534616718   12.01193194022735
H        12.88915170617841   12.29013484808774   11.02264587117502
C        10.13614566360540   10.24184932798516    5.22261528893437
H        10.84372855238943   10.49462030304000    6.02446076841164
H        10.29125433401842   10.92500320077631    4.38809192851876
C        10.25985071398099    8.75532935168006    4.83985173150029
H        11.20461112252619    8.34140138567742    5.18795089850939
H        10.20701952427945    8.62473676103371    3.76048765856948
C         9.05388764882715    8.09975725222304    5.53444662374677
H         8.31897173313280    7.77336678776286    4.80007384686751
H         9.33644216834459    7.24546444043159    6.14561341341321
C         8.47838152998057    9.24067876518977    6.38208055983846
H         7.39518653716696    9.20968512497514    6.48941788518776
H         8.94022221385067    9.25347476644969    7.38020003062604
F         8.40115518628233   15.31786526110848   -3.95898513820934
F         1.76039597859288   11.42631843762394   -2.77164911351021
O         5.18875777002054   12.06878897966232    2.33921437965100
N         9.79332023081435   13.21815169576364    6.55441731385252
C        10.42110381588505   13.26521680614420    7.75289088458806
C        11.69005796506901   13.91473628938983    7.63354450914400
H        12.37265446915664   14.08572432446095    8.44321758095464
C        11.81698027830690   14.26362666903563    6.32890766383529
H        12.62986303129948   14.78719531675486    5.86425513579370
C        10.62489774469498   13.81668986125733    5.66079350551325
C        10.36513781293715   14.01385146181593    4.30183228216764
C        11.41035942387064   14.66241799866236    3.48268447816446
C        12.65327055742759   14.05825712241468    3.31488936063850
H        12.84547003198234   13.10688310059347    3.79038092279332
C        13.62807100788390   14.65976845408039    2.53998684216255
H        14.58743365957347   14.17869325864352    2.41472443085862
C        13.37701716560254   15.87474863611214    1.92452516598035
H        14.13907254933421   16.34466734859965    1.32052916714483
C        12.14439502524598   16.48481117664742    2.08754422080962
H        11.94423277505353   17.43412402575240    1.61206643381366
C        11.16710398625239   15.88285750482241    2.85883415521999
H        10.20764944416421   16.36190069895506    2.99279312967875
C         9.18295749749047   13.63447806278200    3.65566323363023
C         8.91520808127432   13.79283128393416    2.26431565443472
H         9.57405061530042   14.23931907533444    1.54651203283302
C         7.67024756193613   13.25802905704991    2.04444188686156
C         6.80877737837710   13.11242013006601    0.91326848737247
C         5.60356021595015   12.50444659270886    1.12429894440394
C         5.96342430814712   12.19503128112977    3.45431857036027
C         7.21503772880285   12.79042433120543    3.33074070781607
C         7.21352564072411   13.67422017834951   -0.38449591941986
C         8.46191227347201   13.36880274507680   -0.92087766905949
H         9.11149082842988   12.68377919400524   -0.39763204228469
C         8.86708669852366   13.91561730395810   -2.12398708450587
H         9.82907311493591   13.68146402862433   -2.55194981489531
C         8.01245649647652   14.77991705257486   -2.78296292279881
C         6.77077220929700   15.11090161547558   -2.27026810341758
H         6.13341060815131   15.79465569396792   -2.80811439321580
C         6.37815816671429   14.55566853976068   -1.06810152933183
H         5.41631076213648   14.81005721768509   -0.64924185404816
C         4.60638486364061   12.22393692771225    0.08150695234175
C         4.98442746874211   11.79580929190831   -1.19085651806197
H         6.02839640160262   11.65721296827466   -1.42278596612395
C         4.03107273687900   11.52911786016992   -2.15335731266363
H         4.31011240593561   11.19783347936678   -3.14088156868506
C         2.69353577224924   11.68270894344544   -1.83226666488741
C         2.28728389655187   12.08238687440075   -0.57207328308885
H         1.23586469285967   12.18114184458401   -0.35292991850188
C         3.25000411424182   12.34731994380791    0.38215927316411
H         2.95513631148603   12.66161266295837    1.37145148892661
N         8.12873329917859   13.02237857854176    4.27813912914572
O         7.03403913278070   14.53317281962366    6.71555315169682
C         5.70761480918318   14.70985678501336    7.17002296115978
H         5.00097101489688   14.45697790403100    6.36738529629811
H         5.55171365695259   14.02668952535094    8.00438286050923
C         5.58330028736742   16.19633969347602    7.55260600882685
H         4.63847496712668   16.60991787918573    7.20429357491491
H         5.63585640253293   16.32699967837192    8.63196572449265
C         6.78924079898605   16.85225829459986    6.85827465549638
H         7.52338753314499   17.17989844983401    7.59285776204779
H         6.50642527418092   17.70580094500292    6.24617603217350
C         7.36623042307968   15.71112147953390    6.01190028705202
H         8.44953684414239   15.74254173929855    5.90582995162389
H         6.90559786340132   15.69764340826428    5.01323911827161

