67
CSD_code = NOPNEO | q = 0 | S = 0 | Stoichiometry = C34H24N6O2Zn | MND = 4
Zn        2.56102575781266   12.60551202963023    6.55525415409225
N         3.93334285615073   14.04240752958295    6.09438704773994
N         3.95713575525772   11.17619046965694    6.11824074611793
O         7.82895550753337   11.67743671581980    4.64965913020290
N         7.02359451493661   12.76269465786329    4.90028652063128
C         2.56051203370165   16.03594516832507    6.55408747117339
C         3.71375431571513   15.40090302404952    6.10140364446306
C         4.85168181174749   16.07181970618753    5.56905562880261
H         4.94477092195761   17.13194126686720    5.43753409256009
C         5.75972075853059   15.10618192528520    5.25238498264017
H         6.73691695363477   15.21728319948704    4.83020285279187
C         5.16425268837747   13.86392186345567    5.59512707275174
C         5.85428162659998   12.60274319494677    5.43079167914826
C         2.56065612935037   17.51429267614242    6.55443956024567
C         3.77715214134098    9.82871632696957    6.31304421973373
C         5.25907590302357   11.34487332865749    5.81842062914702
C         5.02279872310121    9.15462308706953    6.18096692513785
H         5.18375244558612    8.10361993910938    6.31970933776805
C         2.56073236468594    9.19401660444642    6.55444976527924
C         5.95038505076387   10.10539739087744    5.87239811347084
H         6.99741288898263    9.96150840368480    5.70701958813448
C         3.45607377552329   18.21893536004771    7.35369180090352
H         4.14636707108233   17.67417385145671    7.98104370845303
C         2.56070438323717    7.71728636178289    6.55450502355711
C         3.45097374925437   19.60199311929895    7.35660919935166
H         4.14568817177626   20.13946321241442    7.98548834008881
C         9.02374343491552   12.09897033621733    4.02309043814387
H         8.81180005217412   12.59326022912883    3.07189503828166
H         9.59967485680649   11.19166680370494    3.85266739787653
H         9.58169777967777   12.78279138325479    4.66771988560479
C         2.56073947882435   20.29682159300118    6.55442995199093
H         2.56068645498440   21.37672974865299    6.55448973011802
C         2.93485431296215    7.01213864582996    5.41402032606813
H         3.21595244762647    7.55658467726825    4.52450012563621
C         2.92807071787435    5.62926939000216    5.41395303745229
H         3.21270647932402    5.09194668424697    4.52131518602364
C         2.56069337928782    4.93443305563061    6.55445720066534
H         2.56071130573229    3.85455672712160    6.55443941709763
N         1.18851375952307   14.04234171882465    7.01560601241658
N         1.16452984011784   11.17619288789850    6.99136272601908
O        -2.70722641158193   11.67739426145065    8.45999907183274
N        -1.90206770639067   12.76275277220223    8.20889031055614
C         1.40747029257648   15.40094572941574    7.00722017329025
C         0.27017364327591   16.07177133450140    7.54068327972246
H         0.17707271636158   17.13191403406923    7.67204541423558
C        -0.63814530162256   15.10623845013437    7.85692087257363
H        -1.61556677901992   15.21742849622748    8.27869637004394
C        -0.04265209080595   13.86394370350071    7.51432192488379
C        -0.73280934791777   12.60283537192753    7.67825745948976
C         1.34435458797526    9.82877749372306    6.79598239569541
C        -0.13753134808710   11.34495708320803    7.29071902390142
C         0.09872922274941    9.15468084843462    6.92824724779791
H        -0.06227090291817    8.10369779384919    6.78940589716253
C        -0.82882286781713   10.10545339836952    7.23691472913129
H        -1.87586461274560    9.96158942253564    7.40222898202027
C         1.66525665945356   18.21895349175701    5.75530229034309
H         0.97501501316592   17.67417839927933    5.12789364826252
C         1.67046170150213   19.60198073403454    5.75231737154098
H         0.97572381913813   20.13942119450229    5.12347545638012
C        -3.90199249513443   12.09891112760758    9.08663467785554
H        -3.68996655074899   12.59330710420395   10.03777271414943
H        -4.47786527750164   11.19156662685986    9.25721381615121
H        -4.46005413453855   12.78265828401606    8.44197517851593
C         2.18656369042944    7.01209354025143    7.69498343608836
H         1.90550411916772    7.55649862994329    8.58454449558223
C         2.19331448720812    5.62921766026978    7.69499051907349
H         1.90870327433311    5.09184871982898    8.58761553593977

