116
CSD_code = NOPNIS | q = 0 | S = 0 | Stoichiometry = C64H40F4N4O3Zn | MND = 5
Zn        6.92270839864582    6.07343043870059    4.14047728302996
F        -2.58824879693074    7.74477205829227    9.26109780878411
F         2.93982094965172   12.89605392219131   11.17554113038471
F        16.58173686072590    4.56574406328893   -0.76260081784887
F        16.48573860951458   10.59077150099959    4.17910934593910
O         2.83204405087767    6.70135128229175    6.46837913111289
O        11.12824455121832    5.36412055032876    2.04867073038843
O         6.14027245866253    7.26997623208101    2.48613068537171
N         6.29413867028130    7.39574433797196    5.54681192944282
N         5.20630131321392    5.00576906031057    4.32423762096721
N         7.69430187334722    4.63770012942752    2.93651193930553
N         8.70013623526508    7.04290639982069    4.19357270031596
C         2.62407163353771    7.76746444120973    7.27843244091605
C         3.57839043041812    8.70916102854559    7.54339225766922
C         4.84528724212191    8.54942853693612    6.90270553721507
C         6.03249744421899    9.23581080931760    6.89595476678734
H         6.26854437666016   10.14439230680148    7.41244815739037
C         6.92002772879071    8.50667257225529    6.05069400818424
C         5.05206752734046    7.40399450760008    6.04954462937172
C         4.02574446121408    6.49303236670930    5.84656941187940
C         4.10101392105647    5.36065046836706    5.02013420608487
C         3.03438205418704    4.44564996018498    4.77354026303261
H         2.05333633486531    4.51435251998209    5.20146782275316
C         3.51866490716442    3.52072613242414    3.90424030494026
H         2.99909514163287    2.68468060924703    3.47832497206557
C         4.88067521591049    3.87654973297888    3.63433785023296
C         5.72334030489994    3.18273924072292    2.76344465342527
C         7.03724750190098    3.54370550398555    2.45706061130196
C         7.90864253812526    2.79257234585293    1.60225540532544
H         7.65329727214144    1.87642326046578    1.10640584889349
C         9.09509944728573    3.45386775220176    1.56968702294862
H         9.98959966572377    3.19869817649128    1.03590427474935
C         8.93904435907193    4.59887083139552    2.40618934668395
C         9.92975157177385    5.55973780909529    2.66392011679769
C        12.17419105817164    6.20519091392468    2.23515989199304
C        12.12370793506623    7.29895659143993    3.05311749569529
C        10.88298809030121    7.56219755618806    3.71011488316334
C        10.42619553005843    8.50358208005623    4.59675503821291
H        10.97253547575059    9.31711154584467    5.03035434008179
C         9.06712729958740    8.17400113240754    4.87610955382292
C         9.77596748307163    6.66296253002138    3.49061129261388
C         8.23091821425585    8.88495160214068    5.74333730730366
C         1.25279025626176    7.78354271011861    7.80778511647806
C         0.52970279896151    8.97079317384571    7.91906972822099
H         0.97476524738269    9.90227287104175    7.60720019481683
C        -0.76104400771257    8.96213148118854    8.40937410811217
H        -1.33128947777092    9.87277822523818    8.50063712864020
C        -1.32914328114983    7.75534825208753    8.77922334610123
C        -0.64458603612697    6.55947213980279    8.65907957587369
H        -1.12152046232777    5.63626046569420    8.94780506158841
C         0.64603247582403    6.58041036278407    8.16763652634791
H         1.19934035335829    5.65940018071519    8.06769577978499
C         3.38179096982077    9.81315002994321    8.49548967109886
C         3.69905844502500   11.11823662251361    8.12748962468065
H         4.04903726228614   11.31801423444531    7.12611460609239
C         3.55053360339288   12.16075859814098    9.02286791608374
H         3.78810253584242   13.17612980476869    8.74728917687118
C         3.08804319345556   11.88290371113648   10.29588835428784
C         2.77446063513217   10.59542384473740   10.69393928928767
H         2.42389424797868   10.41489545425943   11.69763984167072
C         2.92595653835896    9.56355702041253    9.78842701660002
H         2.69584966206788    8.55169734545195   10.08545876687273
C         5.18014745739433    1.97103141498359    2.11188789990959
C         5.00678013252275    1.92877534986674    0.73180713154950
H         5.26818348597878    2.79390858245266    0.13912568017841
C         4.49364760504948    0.79750796794712    0.12363289550330
H         4.35863552761381    0.77850705040364   -0.94811160474249
C         4.15370564919376   -0.30835371094144    0.88470296370019
H         3.75551742227263   -1.19225140587426    0.40881090087506
C         4.32654509250772   -0.27618415317546    2.25845530907836
H         4.06562109741250   -1.13741750099851    2.85614785857542
C         4.83277953993279    0.85657488366834    2.86937763267329
H         4.97371002263563    0.88239298709151    3.94005326627148
C        13.34442717788174    5.79458113126471    1.44592819252521
C        14.15111846424463    6.72968124873362    0.79814174762228
H        13.91561550049129    7.77998699650871    0.86418369006342
C        15.24165283263427    6.32054966821765    0.05660151939900
H        15.87412813379815    7.03280299144140   -0.44883956911440
C        15.51534888601115    4.96728656161805   -0.04190372528907
C        14.72006845246930    4.01562087420523    0.57042437349494
H        14.95696694281826    2.96878028375412    0.46477027881168
C        13.63223807471441    4.43667267383396    1.31002098652212
H        13.00015671385287    3.71152018813768    1.79890943135701
C        13.28489433996430    8.15915358561522    3.32787803931263
C        13.16703232174799    9.54284212036872    3.22318564716085
H        12.23095295270699    9.97331081752410    2.90164556938090
C        14.23992302786947   10.36716540635697    3.50558314726085
H        14.16207070313994   11.43971107847956    3.42229378047680
C        15.43282471350572    9.79232538398375    3.90328177026045
C        15.57707421614343    8.42190579234667    4.02789138272421
H        16.52014632837746    8.00926943187810    4.34918842874761
C        14.49724022621253    7.61007292274496    3.74055173009434
H        14.58935738419619    6.53952038201300    3.84248641857287
C         8.76652801920102   10.11094896685837    6.36928996186458
C         9.18140088045561   11.18258992895103    5.58294884539550
H         9.09708780509875   11.11266511017026    4.50749145071653
C         9.68266979912714   12.33151673453477    6.16665093321268
H         9.99804399168295   13.15693235547202    5.54463668258870
C         9.77877952949277   12.42693535639672    7.54485172322417
H        10.17168472163658   13.32375895550381    8.00045118230694
C         9.36957029391253   11.36631293348066    8.33590227331483
H         9.44539337037970   11.43396644255172    9.41145920570860
C         8.86634317777274   10.21742366991892    7.75378293188742
H         8.55848349498509    9.38529124048815    8.37005197325021
C         5.99070054447821    8.67568161094369    2.48238191124270
H         6.79682092410169    9.10084947577943    3.07828281775343
H         5.02439283544998    8.95408214854227    2.92754677507160
C         6.03712949058349    9.05803900278605    1.00238645815233
H         5.52457761524746    9.99586002918541    0.80276133257676
H         7.07315457995107    9.14804191194466    0.67824853504665
C         5.36338810801672    7.85579617320033    0.32379005946689
H         5.92693856124235    7.52584698553256   -0.54603592139376
H         4.35112618355539    8.09538300823085    0.00321764405189
C         5.34341453720193    6.77620248912856    1.42335799953162
H         4.31935959631794    6.60029445038292    1.77891431667315
H         5.77277921397271    5.82527864674117    1.10875410717797

