57
CSD_code = NOPNUD | q = 1 | S = 0 | Stoichiometry = C27H24ClN2RuSSe(1+) | MND = 9
C        -0.00503745710949   13.79949539544560   11.11990020149476
H         0.44396296797213   14.02548965994419   10.16232329603909
C        -0.97824512185138   14.61947130520881   11.66282505621909
H        -1.29617672015735   15.50191459785100   11.12977437645138
C        -1.54849561433364   14.30211803909997   12.88537088867796
H        -2.31089384909643   14.93973018594832   13.30494912088759
C        -1.15313194812714   13.16174712210197   13.56517926149837
H        -1.61222153578837   12.90886497020706   14.50813203892665
C        -0.17552057362887   12.33959787347018   13.03210929405466
H         0.13989926324627   11.44414156388910   13.55794840372331
C         0.40024130031992   12.66597857103112   11.81367249922143
C         3.26083941301977   12.64125972777453   12.04841101391673
H         4.16073086344359   12.02139807500684   11.94740268817139
H         3.37619860580383   13.60452353040248   11.54905030993932
C         2.48056807845022   14.00916271176549   14.00089336166027
C         2.25382177136356   15.27633837860150   13.49136268378800
H         2.40085941425373   15.50414860784769   12.44851913065767
C         1.82219272269814   16.24440859095835   14.37953156065128
H         1.63487123023633   17.24301559722528   14.01922795715906
C         1.62663548628959   15.96119993907611   15.72954280781868
H         1.29055963578059   16.74614471439233   16.38792426429220
C         1.85254608041988   14.69898864373867   16.24602890848440
H         1.69643222584154   14.49132155152490   17.29215028724176
C         2.27971139230878   13.71942898656928   15.36222383717403
C         2.89164494911586   11.84970048895123   14.34156925762757
C         2.45913075918854   11.60678284145972   16.75472840565113
H         2.39962106591996   12.30685950687356   17.59039817507346
H         3.36431898699228   11.00403751601755   16.86184783224481
C         1.24261635081507   10.71240987680651   16.72322067550670
C        -0.01306117792909   11.26517477849227   16.50315869377970
H        -0.10934545145787   12.33371322635310   16.37050230410370
C        -1.13538520361873   10.45639978030735   16.46724231784475
H        -2.11006905186825   10.89097925023899   16.30238584390073
C        -1.01161605798849    9.08952820013207   16.65900605565544
H        -1.88836798242707    8.45985307420572   16.64261090537108
C         0.23800463622346    8.53529550770016   16.88356836609513
H         0.33478922164127    7.47216465691144   17.04535643676180
C         1.36300857517710    9.34259903201784   16.90798935076910
H         2.33683135383671    8.90994966005167   17.08130823340416
C         0.18345568356877    8.51649395086643   13.23576177529358
H        -0.40887422668346    8.84685108768429   14.08147335664908
C         1.31223554114421    7.69049006648712   13.44744967792437
H         1.58418173956181    7.41206062376145   14.46102045751181
C         2.02958818445055    7.16002071292842   12.35756331049960
H         2.85108937994212    6.47430464764221   12.52830950696425
C         1.61921042027593    7.46185973795353   11.04080600496085
H         2.13656133114472    7.01521255827183   10.19966062843586
C         0.52222303125561    8.30707234916641   10.81793960227276
H         0.17473240484998    8.49700658979786    9.80777854236968
C        -0.18705830187729    8.85139315750035   11.92335020581804
H        -1.07565181786429    9.44909493375888   11.74561651978652
Cl        3.97337809095783    9.69937966125623   10.87290506334406
N         2.89873960248549   12.83125554962938   13.40022923889964
N         2.56346491512704   12.38008502747984   15.53656688714262
Ru        2.00176896171769    9.43933603095886   12.13630790062210
S         3.23822439454047   10.21627392505095   14.09013629848171
Se        1.84456206043431   11.59027365420904   11.06887892107960

