104
CSD_code = NOPNEL | q = 0 | S = 0 | Stoichiometry = C54H45As3BrCu | MND = 4
Cu        9.75537985165753   -5.63221441964831    5.23241208036298
Br        9.75443541519770   -5.63203216729364    2.92158198018307
As       11.93754157587475   -5.96562022574807    6.21626995081122
C        13.66013171392059   -5.71818146946576    5.33226743943333
C        13.65239951706110   -5.49506720356533    3.95839923220579
C        14.84358888717922   -5.35608988965723    3.26701953305637
C        16.04926331591297   -5.43991602703310    3.94320919216565
C        16.06323405709580   -5.67391483783076    5.30872591104885
C        14.87374842643298   -5.81667489655324    6.00052071874860
C        12.01894655689000   -7.90863148816812    6.30591429971233
C        11.34289940272044   -8.61269968159557    5.31194322784628
C        11.35463054005262   -9.99717736431169    5.29415803830762
C        12.04618364338801  -10.69062391843559    6.27429874116480
C        12.74067583037742   -9.99782892144113    7.25261652871749
C        12.73169413462212   -8.61421324146898    7.26523530145492
C        12.33666414773545   -5.45506038340883    8.03619441234591
C        11.74530121686598   -6.13233705825473    9.09679746182057
C        11.90927191475541   -5.68781403264776   10.39635868857958
C        12.64824251464347   -4.54350569598217   10.64833546537136
C        13.21700414813613   -3.84343669489106    9.59578287655219
C        13.05870941191408   -4.29418560608952    8.29769156253057
H        12.70622489218982   -5.43458741308833    3.42787727405107
H        14.82859253317029   -5.18180386257472    2.20134983612246
H        16.98032985874209   -5.32723126312025    3.40717993233478
H        17.00433125359656   -5.74822814635767    5.83560905871666
H        14.88905108616495   -6.00368978389922    7.06920077464150
H        10.82767711575508   -8.06387109383635    4.52285421373079
H        10.82537875890176  -10.53093555030929    4.51759840152795
H        12.05091748337462  -11.77105122118495    6.27205661513064
H        13.29357285090432  -10.53825431162228    8.00827253026321
H        13.28390872473740   -8.08046853458725    8.03116277851598
H        11.14787687766096   -7.01670907105981    8.90018136519690
H        11.45221264341742   -6.23329427293762   11.21003371425132
H        12.77580666788112   -4.19254460019451   11.66227664033572
H        13.78151831430169   -2.94179137580935    9.78713320886017
H        13.49405708738153   -3.74226254026593    7.47004762474552
As        8.95229611756024   -3.57521247498779    6.21568075451202
C         7.87701153190762   -2.20662403633120    5.33203546282113
C         7.68704519477984   -2.32478119472844    3.95824525711763
C         6.97131395253982   -1.36229451643392    3.26715293771520
C         6.44191991402841   -0.27595117867682    3.94354365046997
C         6.63818296639310   -0.14695920137793    5.30898513032404
C         7.35631928435292   -1.10608687184068    6.00049326029926
H         7.51111072106205   -0.99941051397549    7.06911107378218
H         6.23267506429931    0.70543939838893    5.83602857288870
H         5.87899653086181    0.47434356041888    3.40773891061755
H         6.82737844103925   -1.46235524525340    2.20154441190229
H         8.10708390381521   -3.17465182531421    3.42755143234893
C        10.59449057406110   -2.53349627073332    6.30555199298003
C        11.54229442073053   -2.76697822485639    5.31162480181100
C        12.73552425390137   -2.06474374804027    5.29397410847496
C        12.99036167640507   -1.11923729674043    6.27420951892814
C        12.04311563584559   -0.86415758227102    7.25249990200724
C        10.84926577155296   -1.56358233013397    7.26498366827781
H        10.11093991616674   -1.35219298785774    8.03091601645452
H        12.23476380918820   -0.11522130992416    8.00823655189507
H        13.92374740198440   -0.57505159031539    6.27205187775734
H        13.46240415551513   -2.25624627987431    4.51742746835229
H        11.32453576988096   -3.48746296540283    4.52244735447511
C         8.31067539241723   -3.48480951162322    8.03565889386795
C         9.19287575979138   -3.65870695657613    9.09621163922006
C         8.72596360395403   -3.73887070246907   10.39579466002665
C         7.36551637895911   -3.67056994298347   10.64784396621603
C         6.47486144823126   -3.52765132064858    9.59534122469030
C         6.94433852065177   -3.43944875355811    8.29723300199799
H         6.24868020934821   -3.33806563674695    7.46963258035611
H         5.41178092089143   -3.48920147370061    9.78675056359742
H         6.99782123007972   -3.73549001685603   11.66180156245075
H         9.42689741551281   -3.86225066833391   11.20942251738611
H        10.25744034260626   -3.73428288098448    8.89953758318715
As        8.37482621911798   -7.35554528562919    6.21570400297227
C         7.72751750624043   -8.97114319080440    5.33200266032078
C         7.92491494927278   -9.07652790357343    3.95822097609850
C         7.44952749277184  -10.17771712804146    3.26710030351697
C         6.77362371694206  -11.17951655664816    3.94345516070247
C         6.56367789032431  -11.07409051388827    5.30888455746577
C         7.03495319000934   -9.97249781949509    6.00042088383498
H         6.86508751990340   -9.89181447843798    7.06902858835022
H         6.02838189075807  -11.85159403284807    5.83589608334891
H         6.40554971815296  -12.04226033304446    3.40763183697793
H         7.60822667665796  -10.25230021478623    2.20150088311877
H         8.45074978519921   -8.28770206127341    3.42755893489919
C         6.65152981262849   -6.45434064383703    6.30559440617176
C         6.37975981884644   -5.51683994857475    5.31162749393426
C         5.17497642259979   -4.83462009164126    5.29400912177241
C         4.22878354894699   -5.08664999673638    6.27430830571911
C         4.48156952615967   -6.03447520229181    7.25263168784547
C         5.68423276728594   -6.71863803577081    7.26509117384149
H         5.87038174448955   -7.46370741514321    8.03104338586037
H         3.73719312428621   -6.24294928706045    8.00841848553674
H         3.29080290572748   -4.55042387693461    6.27217934204964
H         4.97732546694649   -4.10941292531828    4.51743894378945
H         7.11254729345327   -5.34520909561789    4.52240027524410
C         8.61750804194123   -7.95643641835694    8.03564854154681
C         8.32696638707621   -7.10554982691401    9.09624589606524
C         8.62999202992992   -7.46981932169924   10.39579799342055
C         9.25124761861036   -8.68207327275986   10.64777259377753
C         9.57283884974718   -9.52479337668645    9.59522473765494
C         9.26157308924047   -9.16232196981686    8.29714803082279
H         9.52162844254877   -9.81542060806435    7.46951585118161
H        10.07122114842165  -10.46461193148692    9.78657153582640
H         9.49142848466407   -8.96804136085014   11.66170557766538
H         8.38634398085194   -6.80115835071680   11.20946112620981
H         7.85998233931713   -6.14588671016668    8.89963170240420

