51
CSD_code = NOPROC | q = 0 | S = 0 | Stoichiometry = C18H20N6NiO4S2 | MND = 6
Ni        6.65888118766267   -0.00094453363213   12.83917480603701
O         6.14185952640007   -0.80562955509588   14.70760589592361
N         4.71185946991712    1.21776643351787   13.50025428900061
H         4.92287333043060    2.20317148974993   13.65289003883770
H         4.01600681474633    1.10498279408239   12.76359761511883
N         4.33057688109879    0.58216305147901   14.68710837020174
H         3.41264049961685    0.73695445405142   15.08853874958432
C         5.06863748609242   -0.45115187977392   15.16284896490331
O         4.49240293548003   -1.00429121956726   16.22363285465022
C         5.17192761078157   -2.13450324940609   16.80002651668728
H         6.25000770857543   -1.93915545696038   16.78302993192653
H         4.96368217900732   -3.01360616597792   16.18183492291952
C         4.66956692072908   -2.31847192166526   18.20350617873400
C         3.91715668274329   -3.43107662062767   18.55197895128485
H         3.69376533534463   -4.18088770542067   17.80747896987072
C         3.45595780772576   -3.58359670375528   19.84845033378617
H         2.87461240774681   -4.45444704057373   20.11238367543053
C         3.73470655132009   -2.62063496408416   20.80276275400938
H         3.37260460978500   -2.73904785794145   21.81317337591803
C         4.47859697090164   -1.50403501956182   20.45870848538612
H         4.69734192398412   -0.75020676586151   21.20040472019433
C         4.94630595496196   -1.35477254120954   19.16592816756441
H         5.52843396237881   -0.48607902537533   18.89549776952541
N         7.71688934134658    1.25448542268314   13.60599445019283
C         8.72916923307068    1.83054687639194   13.41889371623076
S        10.07692240082260    2.64697900056070   13.25979358621259
O         7.17515674848632    0.80454650980041   10.97099365455819
N         8.60597804358807   -1.21912574505788   12.17726010319742
H         8.39551358925142   -2.20459935348649   12.02436910492041
H         9.30188206235718   -1.10612604038953   12.91385069415087
N         8.98674743094900   -0.58293188601452   10.99059033366246
H         9.90447126865646   -0.73757950091626   10.58857087639050
C         8.24833841213851    0.45034804617032   10.51536629150288
O         8.82421977068699    1.00383914267567    9.45454824900221
C         8.14511572974649    2.13485868651320    8.87929838013065
H         7.06690833623072    1.94027581836094    8.89678841189290
H         8.35436952311314    3.01339297076575    9.49794824987438
C         8.64683161047954    2.31938044037652    7.47565541802737
C         9.39952434054341    3.43185083878018    7.12736427028120
H         9.62356708456807    4.18121970926947    7.87211461653147
C         9.86018345438451    3.58480495599669    5.83075013909117
H        10.44180840798772    4.45551676317704    5.56697330062535
C         9.58059728542881    2.62241939963314    4.87610231836179
H         9.94236945663022    2.74111765146298    3.86560761570842
C         8.83639277646222    1.50596609811337    5.21996506586804
H         8.61702294001229    0.75257100714950    4.47801620189716
C         8.36923699809834    1.35626953827910    6.51289098969011
H         7.78687274054719    0.48769104686439    6.78318519212276
N         5.60117619530880   -1.25612865020282   12.07163891413526
C         4.58909309578117   -1.83256087238245   12.26067777800379
S         3.24243696589309   -2.65152787096513   12.41757574024151

