41
CSD_code = NOPSEQ | q = 0 | S = 0 | Stoichiometry = C14H16Cl2N4O4Zn | MND = 4
Zn        1.30801551945522    1.34477734236709    3.64282855993352
Cl       -0.35569434423578    0.36667618826505    2.64100404986401
Cl        3.13574044968832    0.53249846070750    4.71213107458008
O         1.37927015500521    4.31296044407755    9.47714716658646
O         3.69449568130522    1.49689504861618   10.50315239677668
N         0.47454094808963    2.51306877511694    5.20519800875014
N         2.76493576378678    2.69772608162941    8.69943785735281
C         1.26151134368426    2.78037101107180    6.24176512579149
C         0.77079845451318    3.21267722883784    7.46557906807483
C        -0.60035262562728    3.42955883828826    7.58306079161653
C        -1.41408000743396    3.16900751900361    6.49395959541352
C        -0.83732767629632    2.69416798661790    5.32734542272712
C         1.65409082782666    3.47143366027253    8.65143306426999
H         4.08527316564738    0.81191892039940    9.94692344257965
H         2.89006141161954    1.96297701516995    8.01840857790120
H         2.31900240612823    2.63684863864912    6.06952509100961
H        -0.99649156936588    3.79000132500295    8.52068751017616
H        -2.48055559512680    3.31820859838882    6.54700003105336
H        -1.43138402748727    2.44372086972150    4.45985617689238
H         3.30003780250371    3.46208920768300   10.52978614290772
H         4.67700325984017    2.99323580645674    9.47329974396146
C         3.67254327409788    2.71139685917508    9.82731955806340
O         6.67737250160343    3.85433101560215    1.03913978434546
O         7.75247433055850    2.37065038959301    4.43662205680033
N         2.29342112141690    2.50362326293637    2.15145470216254
N         6.40331467071175    2.16237958497887    2.52433926307821
C         3.59243613402540    2.68378201876718    2.36162617334551
C         4.49165176134994    2.95785745277915    1.34130099816188
C         3.99078251806935    3.14110413930025    0.05579076369714
C         2.62953586164635    2.99260236599010   -0.15323331507078
C         1.81994502184567    2.64615499929208    0.91661801534465
C         5.96426864417579    3.06388961379604    1.61464440041390
C         7.74673301076919    2.16763982223790    3.06062948193561
H         7.32314979857849    1.62767446927534    4.87925237839631
H         5.74665487980722    1.52135969545046    2.94719033054930
H         3.91684413399073    2.59236989479001    3.38843723458327
H         4.66886422080154    3.38407901265381   -0.74843791949257
H         2.20020582482656    3.12204777751880   -1.13375609598244
H         0.76065578508195    2.47087318575442    0.79345580355175
H         8.24850246453739    1.22358665184656    2.79330574133788
H         8.27505269856642    3.01067882193422    2.60717174661051

