51
CSD_code = NOPSAP | q = 0 | S = 0 | Stoichiometry = C18H26N6Pt | MND = 4
Pt       -0.51368042214377    7.45408440146724    5.32419928195026
N         0.07952036358175    8.84244677139984    3.97267601519756
N         0.45097180912975    6.23012667756998    3.99884703342330
N        -1.44265509482161    6.06016316630337    6.46474961689998
N        -1.36531648911042    8.68520046820598    6.71397012833326
N         0.93026450251760    9.10731704515235    1.89606158592021
N        -3.00786254911017    5.79064228387579    8.07292992164719
C        -1.72782063002743    4.75328131887483    6.56267623760535
C        -2.69217844863834    4.60267061030538    7.55775881086027
C        -2.25162750869553    6.66037663680914    7.39686343697517
C        -2.13014275143255    8.05527053709833    7.54683841835432
C        -1.03520061829417   10.06661888440954    6.96481848668961
C         0.48684360897401   10.23179724899891    7.05063157329646
C         1.08743191449280    9.44147740618148    8.21178471615822
C         2.61249582088426    9.34010974396517    8.13698650289413
C         3.16119109415543    8.63938992928689    6.88930308965807
C         2.60479138943186    7.23230187878510    6.68223395146808
C         3.27457459195119    6.52126101453515    5.50615771330173
C         3.01221714631356    5.01240203557583    5.47787788689417
C         1.54453588297111    4.57815282669231    5.47811951314626
C         0.79223532748464    4.83989241274977    4.16676294473265
C         0.87624102150902    6.85769721304131    2.94999596894653
C         0.64948953918121    8.24532200220715    2.87789445588424
C         0.51803400475478   10.28706523816484    2.35985090080049
C        -0.01236939191646   10.13883611784190    3.64024805365019
H        -1.25978821403574    3.99022791454816    5.97316956287099
H        -3.15049236865684    3.69931122585498    7.90939114685662
H        -2.63353333239656    8.56210905860555    8.36513966850038
H        -1.50354431049717   10.39769497317421    7.90035702620522
H        -1.42705227628084   10.68528155345902    6.15077082542112
H         0.91743535942558    9.87308904503136    6.11566417388013
H         0.72619672086572   11.29162259648598    7.15388996770965
H         0.66145058651175    8.43575137259973    8.22337545915711
H         0.81619337775973    9.91995323366504    9.15639833086904
H         2.95854634268207    8.79799190957355    9.02034517444699
H         3.03811747666517   10.34550884133703    8.18167634553260
H         2.96077408255648    9.23894374918373    5.99992912219471
H         4.24780721386981    8.57884345223579    6.99465556821197
H         2.75237363498338    6.64874095298469    7.59409361452477
H         1.51900008990850    7.30079274809208    6.48292955708085
H         4.35685049686265    6.66263850703706    5.57451294224229
H         2.94807305814044    6.98300072629124    4.57310847814180
H         3.50892193191192    4.58796008506069    4.60141809743685
H         3.48226022098729    4.57190251207139    6.36118151191636
H         1.51548307411651    3.50132029979317    5.66073794987574
H         1.01333859167983    5.06685892742027    6.29576110247246
H         1.40296197777263    4.50193448488973    3.31941254152351
H        -0.13469230530146    4.25566094136040    4.16659232780594
H         1.41751165901489    6.35236324985750    2.15481394929792
H         0.61435871923311   11.18292785909883    1.77859787839393
H        -0.41713592092148   10.89696591079150    4.28124143274326

