95
CSD_code = NOPVUK | q = 0 | S = 0 | Stoichiometry = C29H59BIrOP3S | MND = 6
Ir        0.69529282504933   -0.05960454081459    4.47915173950789
S         2.19921556830251   -0.49849593500655    2.71879683209230
P         2.12077092934431    1.58473375545952    5.65178747855183
P        -0.64427938676256   -0.23876909706107    6.32646959795065
P        -0.56744056292090    1.83198592655071    3.58782934213249
O         2.36183997033921    0.44461190312905    1.61319268386011
C         1.07952356620867    2.98835224063007    6.18129179417897
C        -0.62334638570866    1.22483549105507    7.39920657551487
C        -1.38941638010286    2.47571239654960    5.09163430230713
C        -1.22269012171103    3.82060285199399    7.34257171661618
C        -2.56461183642280    3.68786911867501    7.70711573657252
C        -3.24565017043492    4.66629892506406    8.40637606487173
C        -2.60043014379519    5.83617772503973    8.76905682582110
C        -1.27582460268566    6.00671059613965    8.41179923337537
C        -0.60884240451718    5.01586342871747    7.71096093517292
C         2.82253600879013    0.92885348503126    7.28742146289041
C         4.18109699252316    0.24461700544076    7.12374380715423
C         2.86568658033382    1.85691767180814    8.50170957867220
C         3.68138944291436    2.39013748762181    4.93711082999856
C         3.55464704844285    2.83316290589655    3.48151619249273
C         4.21863093540354    3.56603711467395    5.75040995882518
C         0.29465871761840   -1.79025756932556    6.76431584786023
C         1.39226753039955   -1.68392537136879    5.67723200251987
C         0.75596397654390   -2.07214709957840    8.18866284569681
C        -2.42914587087289   -0.81465598562227    6.36000985601766
C        -2.76009273722543   -1.85585804182238    5.29946556657588
C        -2.77962942082963   -1.34255208104888    7.74994325247603
C        -1.97447403309143    1.51607024357401    2.36704044423726
C        -1.57440497461286    0.38593992953498    1.42115285285547
C        -3.32488010960675    1.21363604312557    3.00400726290138
C         0.16698377644722    3.36162180832650    2.78488866212851
C        -0.69956311239350    4.61543347669999    2.88910349678145
C         0.57894141315657    3.11122917399236    1.33578407897798
C         3.90097343088324   -0.99803606256569    3.18843909035927
C         1.78766185939040   -2.08386245080495    1.90552302454409
B        -0.50124000277969    2.63806008242184    6.49440081636561
H        -0.21090936348377   -1.07984750256271    3.79701319549947
H         1.57204843039982    3.44615376347199    7.03958345291523
H         1.12097607087245    3.71991097189301    5.37133904438004
H        -1.55246824319341    1.21896718148257    7.97167596650761
H         0.19061521069307    1.12771101417685    8.11473198441639
H        -1.89990778869994    3.40658209624387    4.83550468337690
H        -2.17255786789828    1.74137899941990    5.29038699687223
H        -3.10006325695411    2.78954583874350    7.42753663907371
H        -4.28536459555595    4.52005550443664    8.66969153978088
H        -3.12534148419960    6.60585330949654    9.31797734959983
H        -0.75847830136046    6.91894247153865    8.67968552613240
H         0.42295432760490    5.19439980853572    7.44297698272175
H         2.09565648280567    0.14955682522707    7.52906462056667
H         4.22051682603410   -0.36807056438938    6.22458794210166
H         4.37130040163855   -0.40522596824571    7.97868445213178
H         4.98910723865295    0.97181470841361    7.07995510356131
H         1.88287118188704    2.24890224051748    8.74835073671178
H         3.54304918445519    2.69491298154932    8.36651209155480
H         3.21974726175968    1.28554583799944    9.36119997417889
H         4.42852284005663    1.58738756247714    4.96651373153457
H         3.00624930018340    2.12026921179462    2.87327395859338
H         4.54845643672905    2.94701124463044    3.04641058084604
H         3.06497942679676    3.80195655145859    3.41582642355519
H         4.54756757432544    3.26561720569941    6.74012861774510
H         3.46688683508063    4.34489907087800    5.85324260120027
H         5.07776174517288    3.99611512789707    5.23438446116398
H        -0.38610037627134   -2.59438259041740    6.46672544862721
H         1.50015053503469   -2.65163376715855    5.17564147564272
H         2.35255026455445   -1.46465557933760    6.14131485719244
H        -0.09557917567138   -2.20202920671201    8.85388337991425
H         1.37032621092366   -1.27173331601948    8.59212750400066
H         1.34578239914017   -2.98864394988648    8.20587230508862
H        -3.02445992356380    0.08515021014740    6.17138562636750
H        -2.37048403137435   -1.55319962566813    4.33183807300332
H        -3.83887029031860   -1.98493176407412    5.22529412592165
H        -2.32397331913826   -2.82013735913177    5.54869302700402
H        -2.48633704756645   -0.64277090183790    8.52960984209273
H        -2.28711674483626   -2.29408492510375    7.93582024197044
H        -3.85454751699348   -1.50142087523500    7.82437199209081
H        -2.08314958441152    2.43488004388195    1.78100377713369
H        -0.57130374346687    0.54170893769073    1.03082532756046
H        -2.26812220492531    0.32234227300760    0.58311591472451
H        -1.58833928572967   -0.56314360254193    1.95239374798681
H        -3.69105727607222    2.06176682373606    3.57703520693483
H        -3.25866516887939    0.34783856419647    3.65621070813954
H        -4.05342936805227    0.99537724472302    2.22298354826344
H         1.07841585465920    3.54497375907033    3.35481205999962
H        -0.77532736515142    4.96073845565248    3.91715687747664
H        -1.70368761404568    4.44876243604037    2.50353954608915
H        -0.24602817970905    5.41296684561850    2.30067649381249
H         1.16700289163917    2.20124294463391    1.24705105414435
H         1.18997895017438    3.94055197351431    0.97944142260762
H        -0.28609408838614    3.03354198126025    0.68114292247618
H         4.39715945703955   -0.13928387634987    3.62485956909278
H         4.42992377785758   -1.30950658543876    2.29573191891223
H         3.83119798660263   -1.80497570053439    3.90733732343584
H         0.80364824579005   -1.97786570563865    1.46336695749956
H         1.77755183446791   -2.86745624144880    2.65244472817571
H         2.52158970729955   -2.27903896556964    1.13223255107156

