92
CSD_code = NOPWUL | q = 0 | S = 0 | Stoichiometry = C33H53N2PSi2Zr | MND = 12
Zr       -2.64525307318627    3.96688189622141    8.28052850620762
Si       -2.30441955179763    7.05470249040010    6.86546028460006
Si       -0.05392597028182    2.37711412316800    9.80618432340235
N        -2.17019106043879    5.95269660746522    8.16424090622657
N        -0.72854022412916    3.32824191718539    8.55614552824114
P        -4.54083468034525    1.39289193139893    8.25204246420850
C        -7.28375543114257    1.95527448836655    8.29472694756764
H        -7.14262677651877    2.06295116973287    9.36184121218762
C        -8.54190451090347    2.09895756128609    7.74058786284192
H        -9.38770733849440    2.32353801903329    8.37478185044268
C        -8.72014395889155    1.95193668518268    6.37427085544926
H        -9.70323605553505    2.06647396909131    5.94142428557532
C        -7.63619271279440    1.64924198859133    5.56671633615182
H        -7.77449846121410    1.52249430318662    4.50248471955432
C        -6.37610077355350    1.50658125535474    6.11867063934994
H        -5.52989847908378    1.26460575407042    5.48997811837936
C        -6.18439162081958    1.68148793397201    7.48550241995013
C        -3.46980252558635    2.10264482890534    6.94836787090993
C        -2.23345617179091    1.57305570698209    6.53450578487667
H        -1.83244271091010    0.62784380581896    6.86149425841154
C        -1.67260894049652    2.41782047349862    5.56599619866147
C        -2.54126255317182    3.50897330989980    5.39417057326803
H        -2.45107899627778    4.27746090946967    4.64062961115425
C        -3.65939927590353    3.35289324213103    6.24797165203541
H        -4.61810646164526    3.84997942097086    6.11658837412817
C        -0.45686592283717    2.07442207946018    4.73294185327231
C        -0.91946899220448    1.16975841551586    3.57845170489036
H        -1.41608140783571    0.28461908931476    3.96812540166728
H        -0.07004471889139    0.85585700847446    2.97488475678666
H        -1.62231371590489    1.70075631744242    2.94047599628292
C         0.57142554144366    1.31899077128119    5.58282067642385
H         0.75694167922398    1.85476717477990    6.50994440088601
H         1.50819399290977    1.21363112053139    5.03848514821321
H         0.21157455256109    0.32389814666546    5.82883071976542
C         0.20659338906663    3.32023819047905    4.13844201411252
H         0.57592958983024    3.97554248713140    4.92381405623464
H        -0.49049258619309    3.87350580914986    3.51412069884203
H         1.05048379191406    3.02759664450929    3.51600679224179
C        -4.48788787406564    2.87754225723015    9.32880291340496
C        -5.03711881757764    4.17176695439947    9.08370232553132
H        -5.87016766275166    4.36909292194981    8.41866992571224
C        -4.50686957814342    5.06954180162002   10.03343878558648
C        -3.56495502568997    4.35366743535331   10.81079155951734
H        -3.07870411792199    4.73026950684189   11.70133328901906
C        -3.54189554705173    3.01225734900729   10.38289208959280
H        -3.04681213978108    2.19362682971186   10.88897932355346
C        -5.06434236801377    6.42941349140320   10.40881327811834
C        -6.07033312110802    6.21047225484747   11.55225096658960
H        -5.58301634995219    5.74776130140644   12.40703125300577
H        -6.87618881130368    5.55690451117403   11.22605992414252
H        -6.49912791150915    7.15917334280373   11.86834374784120
C        -5.78384531570689    7.09479564123674    9.23366317600886
H        -5.08629511133148    7.26373395287559    8.41824811273281
H        -6.18979441315661    8.05530467460473    9.54599791547372
H        -6.61151978238966    6.48468828641587    8.88026804928129
C        -3.94976704112545    7.36725531108712   10.88324757630444
H        -3.20806825988612    7.48106684519777   10.09726963216358
H        -3.46351966720195    6.98497846633124   11.77695105041940
H        -4.36281719278252    8.34592800408732   11.12057618634016
C        -3.98919723173423    6.67904314835088    6.03014533837078
H        -3.85664358128511    6.21541183880680    5.05899416998845
H        -4.54016567399560    7.59882095132915    5.86545595682029
H        -4.60824477689280    6.02513714987530    6.64140801662549
C        -2.31755680198719    8.88339659968012    7.46181228892953
H        -1.37713429075928    9.15248207537291    7.93335793132718
H        -3.10977131035569    9.07709596216320    8.17808826885681
H        -2.46134351879593    9.55970385312423    6.62562398905207
C        -0.96041498359248    7.04029072527459    5.48087760672284
H        -0.77668147909470    6.04331246500166    5.09143089630217
H        -0.01166141756567    7.43031100363082    5.83851646531704
H        -1.26611551532329    7.66342943139869    4.64561202604736
C        -1.08795508003235    6.12629261111218    9.12132759866924
H        -1.33506041297232    5.56879458826704   10.04477040916978
H        -0.96882137279673    7.18566908085493    9.39454414985571
C         0.27118392355703    5.61775351618872    8.60308936188964
H         0.94860125092750    5.48383832622834    9.44957471201397
H         0.70443006272711    6.35349468322663    7.92277820061306
C         0.10985573461446    4.28279097373419    7.85387759777205
H        -0.34886058879905    4.49101419915545    6.87162618224076
H         1.11482415842099    3.87313507853960    7.67782233549030
C        -0.09260254224235    3.16983468290917   11.56948784586157
H         0.50520772493368    4.07679993327776   11.61316085355411
H         0.31385956254165    2.48399526658658   12.30649127461823
H        -1.09905825609287    3.42596131489627   11.88768791976400
C        -1.01717051797397    0.71751589807036    9.83913063657658
H        -1.98148768500005    0.79218859382967    9.33713700509297
H        -1.18949570969643    0.38522031339473   10.85751745210523
H        -0.45105565316257   -0.06382330992610    9.34325610255687
C         1.79948569454331    1.96369257903616    9.52754234564249
H         2.41899862649876    2.85398910083204    9.57577628487996
H         1.96815065194985    1.49501437141781    8.56331156289340
H         2.15835023972032    1.27852480865786   10.28828033062208

