52
CSD_code = NOPWUM | q = 0 | S = 0 | Stoichiometry = C21H26AuClN2Se | MND = 2
Au        1.61357139410199   10.04673700364953    5.98670745840915
Se        0.94784890771896    8.64134170966677    4.16352151257877
Cl        2.22364485370619   11.35660629241891    7.73926356639790
N        -0.29291028320905    7.04555564503663    6.19689438156324
N        -0.20021232590693    6.11452658986828    4.21214358460414
C         0.09630176018110    7.20036106046258    4.93113928280037
C        -0.91625491457423    5.74436920256080    6.40269433464594
C        -0.86282041620435    5.09979146269174    5.01204512346961
C        -0.27685021131837    8.00423369968284    7.24739359540000
C        -1.23928514992284    9.01762736260659    7.25924842945651
C        -1.21745293980411    9.93246002730432    8.29889823414354
C        -0.27544021802829    9.85584651184766    9.31539471201942
C         0.65021299227738    8.82231117084396    9.29055793530224
C         0.67324068793084    7.89211653920179    8.26496724214600
C        -2.24008859277972    9.13458157138837    6.14908077295409
C        -0.20474496095295   10.90163472028701   10.37679962002555
C         1.72024517204668    6.81879862648691    8.23909040190006
C         0.09340229585949    5.92856677630124    2.83370109429739
C        -0.84516052265528    6.31785446570634    1.87946659754194
C        -0.55520522657601    6.09663527952057    0.54146948826562
C         0.63748783165638    5.51027353676566    0.14647567417944
C         1.56196066663974    5.15175173475905    1.11952104501131
C         1.31166791371991    5.35508337890485    2.46615101393816
C        -2.12067276687061    6.98427474598907    2.29458312275957
C         0.94025686717458    5.26886136217483   -1.29977556671613
C         2.33072609040021    5.00272536869765    3.50596445976844
H        -1.93884133367724    5.87617829084630    6.76950763389748
H        -0.35705983008200    5.17583838217071    7.15110058951749
H        -0.28579416202276    4.17013943597456    5.00210452058129
H        -1.85708612447804    4.88508139453596    4.60716384188078
H        -1.93717831547987   10.73799383638718    8.30288048449683
H         1.39838622586484    8.76599421641041   10.06651285627590
H        -2.99107768161566    9.88083648715280    6.39251313704161
H        -2.74024926458459    8.18504889242571    5.95848806296571
H        -1.74321532624742    9.44491522617001    5.22752835488430
H         0.56979358860937   11.61303359255445   10.08813824673367
H         0.07186795289871   10.47183248693682   11.33665409263126
H        -1.14674851941305   11.43500604563238   10.47447420700984
H         1.38015017636811    5.93470983298032    8.78115163641699
H         2.62651719245829    7.17800821222406    8.71945463233202
H         1.96381541538451    6.52862813801947    7.21825089971561
H        -1.27338868207871    6.39852733864299   -0.20701230834413
H         2.50216738656556    4.71294206636891    0.81833319428995
H        -2.76561405196540    6.29600234979565    2.84108639175176
H        -2.66331830218508    7.34347450146230    1.42488102898539
H        -1.90405339697220    7.83423463072416    2.94165392963313
H         0.16895050731942    5.69281683381833   -1.93696997010179
H         1.00452037854122    4.19912597349618   -1.49719083685969
H         1.89762014804965    5.71343234014620   -1.56557745021097
H         2.55841780347276    5.87747644882198    4.11566905895469
H         3.25018979931256    4.66240098240778    3.03840483280028
H         1.96825951136386    4.21419621907762    4.16540181584602

