45
CSD_code = NOPXUM | q = 0 | S = 0 | Stoichiometry = C18H14F3MoN3O5S | MND = 8
Mo        3.20650659722351    1.05375026939600   13.43064344736875
N         5.03940405340002    0.98011954233384   14.35463733376736
C         7.24393653440632    1.84790740696335   14.62068476363985
H         7.97251983703890    2.58917910881382   14.33536483852357
C         5.99608666698483    1.85356893852360   14.03782994846388
H         5.73957948797023    2.58125073974271   13.28141208194999
C         7.55365757609076    0.87345886589032   15.57008361113215
H         8.52984797624289    0.83907004978234   16.02712259768893
C         6.57859201428540   -0.03659125602953   15.91356695959959
H         6.76275713706527   -0.80522401531298   16.64770866050936
C         5.32682995561786    0.05593657653234   15.30219753641004
C         4.14921676108929   -0.66671662152016   15.65294942866286
N         3.89180605959355   -1.49514967908907   16.70031170363765
H         4.55782984306357   -1.82740176056308   17.37653232727523
C         2.53116989152906   -1.66448322770360   16.74865528902848
C         2.00506932812256   -0.92247984275601   15.66306111988511
N         3.04784642931998   -0.34227621383561   14.99129957324936
C         1.72050511936050   -2.36866125658464   17.62533478718700
H         2.13666999947292   -2.93264898248425   18.44558492215940
C         0.35934803221427   -2.29833583773413   17.41031607688717
H        -0.30974311754343   -2.82622855319524   18.07265668033914
C        -0.17378731112598   -1.54348414461944   16.36273006774424
H        -1.24579156802798   -1.50086341036735   16.24685489860294
C         0.62734624822735   -0.84968284469221   15.48043877618495
H         0.20219832980117   -0.25559744136084   14.69090163018434
O         3.80462933046598    3.48600471831104   14.76495784652422
O         3.60969650496956    1.90771699701907   16.62438882937993
O         1.82613765253872    2.11361189067737   14.96610130042223
S         2.95115925992120    2.73298743762432   15.65080114643230
C         2.06742885591339    4.05788065932513   16.64908043023532
F         2.90891041117142    4.82817314591158   17.34204794303460
F         1.37897985549494    4.85211786572148   15.82162911802703
F         1.19950771199969    3.52466326318868   17.51165181890416
C         2.28955818950035    2.63854288331994   12.26443360770253
H         2.04632493185941    3.57431482781365   12.76961801243975
C         1.21164874111726    1.60689599547685   12.09068571843459
H         1.00977571850951    1.43206039379300   11.02481411562566
H         0.29006822926175    1.90362780097691   12.60208551629080
C         3.46406122624394    2.48845323409672   11.55206594348366
H         3.48005882196668    1.90558450665716   10.63635258995242
H         4.18257641360470    3.29815302230709   11.57968548552215
C         4.15651998440727    0.04941580641693   12.09481574063119
O         4.69358604904427   -0.53692311810689   11.25948147628716
C         1.59987526530555    0.16908507901026   12.63221855296316
O         0.96699496529634   -0.80818281968602   12.40360574763727

