66
CSD_code = NOPYUM | q = 1 | S = 0 | Stoichiometry = C29H30MnN4O2(1+) | MND = 6
Mn        1.56074540319178    2.66832556816620    3.44345499903394
O         1.18500866428860    0.95844985357113    3.94782898941690
O         1.90299665640081    4.38142042853161    2.92503013620988
N         2.49673253122644    2.98215181045003    5.35797136485208
N         3.41979963083108    2.06697562289915    2.53825650707121
N        -0.07110895245489    3.22893439263587    4.46835377519203
N         0.87768785306639    2.34194762963626    1.58642261719693
C         2.42349981944162    1.88320874807849    6.34230044803517
C         1.68660687337285    4.11133235208932    5.84809430391507
C         4.18381908637236    3.09485967800047    1.80239590336592
C         2.91690073592010    1.07118500463569    1.57537111890227
C         3.89576963970179    3.40549157666779    5.19266945654338
C         4.84649013647649    2.33255827547934    4.62868670380643
C         4.29403747300957    1.41231082801182    3.52367506173292
C         0.63153635841681    0.62647134280511    5.10029875100093
C         1.12815913514536    1.11437678869659    6.32883857471017
C         0.48406208740758    0.78005047951959    7.50720813124942
C        -0.64319626520321   -0.02433359272818    7.50257246852020
C        -1.12049976388112   -0.52766678761141    6.30334314198573
C        -0.49240998442658   -0.21205338034948    5.11664244796575
C         2.27233626818862    4.72819379729731    1.70498125226782
C         3.33585295424210    4.07920319383445    1.04025724804900
C         3.65318708052555    4.44081189717538   -0.25727226081844
C         2.94254744711096    5.42869372911710   -0.91821387291934
C         1.91502175872003    6.08766494144210   -0.26310879573155
C         1.58384997432038    5.74785369518960    1.03204874123179
C         0.23177953380475    3.79586002794887    5.64758209534921
C        -0.72661282018277    4.05535695917327    6.61326638465533
C        -2.04624091672496    3.70384721018363    6.37413654632880
C        -2.35149229251656    3.08531011443970    5.17313431404787
C        -1.33765052938020    2.86785016971533    4.25683924636290
C         1.74811291455657    1.65192099922712    0.83158723915186
C         1.58572233345017    1.50038613758974   -0.53556334782833
C         0.50092312896345    2.09445979083403   -1.16200753423644
C        -0.37526545316628    2.83780471349344   -0.38871316720688
C        -0.14752483686563    2.93480224686194    0.97265625538185
H         0.87264327808961    1.15040255190727    8.44529963082981
H        -1.13597714877774   -0.26707690834391    8.43025844535124
H        -1.98745417435554   -1.17012114412304    6.29335845585553
H        -0.85914406537059   -0.58778250872776    4.17300805218455
H         4.47265338757585    3.94542246408841   -0.75854402061235
H         3.19925120789514    5.69063253751868   -1.93206213421889
H         1.36853076254982    6.87111795307448   -0.76511691660254
H         0.77818871351317    6.24505025625550    1.55148971586695
H        -0.43991745233759    4.51914906178174    7.54365963868835
H        -2.80940507462076    3.89512172844959    7.11132108247258
H        -3.35745461285101    2.77266978396563    4.94610852305752
H        -1.54684238528505    2.36753497098395    3.32025891665610
H         2.30519768785580    0.93098151302357   -1.10217544241504
H         0.35410785740823    1.99063182059716   -2.22507761103932
H        -1.22205012513285    3.33790495198592   -0.82921070077068
H        -0.80538585554174    3.52713151485448    1.59530536791548
H         2.60353048522536    2.28172011132861    7.35084651534905
H         3.22356997577474    1.17170656294971    6.12316602401028
H         1.92616799977294    4.99745687984684    5.25047003801867
H         1.89946868595630    4.32826616428956    6.90300869673676
H         4.88759401567222    2.60583111746065    1.11396184386393
H         4.77359407742337    3.66655014032444    2.52330462252714
H         2.56287431058502    0.19650726913377    2.13152846770107
H         3.70513761878651    0.75293881848856    0.88067648655677
H         4.30226178766986    3.73632713681356    6.16016758272594
H         3.88600463473345    4.27104457367692    4.52323054040055
H         5.19371820492629    1.68051667811731    5.43297203529184
H         5.73274043356497    2.85918772659349    4.26840812470779
H         5.15283365078262    0.95179446418431    3.01268208731976
H         3.70847845516014    0.60796556679779    3.97927068678194

