77
CSD_code = NOQFOR | q = 0 | S = 0 | Stoichiometry = C38H30Cl2N4P2Pt | MND = 4
Pt        5.95608358448444    4.20834051909679    5.98379409659898
N         3.83197449992963    5.06732280271748    8.33934864848049
H         3.75540023775849    4.05453032237955    8.18746728763641
C         4.89825941783907    7.36450594918123    7.28344015934968
P         5.24431536941743    5.61385298213773    7.63090549431384
Cl        5.21797893199223    2.57769367017012    7.44977515817846
C         4.22736717487424    9.99758249238934    6.74813148208305
H         3.95767885889474   11.02525073949926    6.55670507810477
C         5.37506898996125    9.70685200028144    7.46696053345250
H         6.00247680742933   10.50674743925848    7.83070863524112
C         5.71741835870477    8.39283210350247    7.73145039888345
H         6.60648182934371    8.16282013823033    8.30155456889489
N        -1.19021317986450    7.60780012949810   12.03271758544697
C         3.42512045526404    8.97163593251425    6.27381693758080
H         2.53439496222739    9.19796464189541    5.70700669061325
C         6.54182906963117    5.63419141289267    8.90712448654624
C         3.76203461206645    7.65806078270567    6.53568195730237
H         3.13612068023957    6.84953901778665    6.18301614177512
C         6.28556257293830    5.89418988145167   10.24856021579546
H         5.27967435966809    6.11191809371418   10.57678110517093
C         7.32214001871138    5.85336634759509   11.16440539821304
H         7.12327428547433    6.05036417451999   12.20743374331949
C         8.60939742939274    5.55217142775047   10.74932022364096
H         9.41288565346627    5.51815974012332   11.46977592678535
C         8.86479382742415    5.27502814409726    9.41522362024159
H         9.86465266868407    5.01987804271816    9.09699346898623
C         7.83167875287494    5.30978124174518    8.49834315511786
H         8.00438640530438    5.06423171029616    7.45135712043269
C         2.83436637363644    5.63176422390221    9.11200156167801
C         2.89548987238203    6.93062075559061    9.62024672541813
H         3.76222182574464    7.54359827022529    9.42990853005890
C         1.85756278578510    7.43764153133202   10.37191089839975
H         1.91333109133940    8.44417038222224   10.75944614946399
C         0.73487999259323    6.65510473153372   10.64391056019076
C         0.67430525100916    5.34805564441720   10.15338549878504
H        -0.18844320945429    4.73605509294163   10.36999862653698
C         1.70944310860267    4.84824334284604    9.39801565772291
H         1.66443048930595    3.83764009081293    9.01951054504426
C        -0.32696066694963    7.17768651558303   11.41150049811373
N         8.08327485547904    5.06730836532352    3.62773269964905
H         8.16005817860269    4.05453253744727    3.77970922457841
C         7.01765357549406    7.36452557760743    4.68461563746501
P         6.67150097866826    5.61379218001601    4.33734538855108
Cl        6.70144251428288    2.57913313813666    4.52023566507843
C         7.68876315329416    9.99760887464314    5.21991929393137
H         7.95851496010088   11.02526323403415    5.41136526893630
C         6.54093899177326    9.70695405854453    4.50126172674712
H         5.91351689962252   10.50691218381036    4.13766158588980
C         6.19848840556488    8.39294730293458    4.23676837374816
H         5.30929568954769    8.16302604647298    3.66683125603316
N        13.10442235089010    7.60792006395479   -0.06680748035503
C         8.49107344492865    8.97160103641726    5.69399400748897
H         9.38192375630488    9.19789722471860    6.26062437670227
C         5.37309820761443    5.63430455487306    3.06199851471817
C         8.15405492891218    7.65804089454194    5.43213331606855
H         8.77998449794652    6.84946624599813    5.78465192767394
C         5.62847568137102    5.89485524589366    1.72048395911908
H         6.63409101693443    6.11306253640202    1.39175055115050
C         4.59141175143132    5.85388437787022    0.80519525477941
H         4.78962477828176    6.05121871666708   -0.23789593073934
C         3.30450749434855    5.55206769023929    1.22091105512498
H         2.50063189879606    5.51791870167199    0.50089194162645
C         3.04997734137868    5.27443424111688    2.55506992860517
H         2.05037961078590    5.01886234878376    2.87377930033932
C         4.08359728733950    5.30926541723258    3.47139332008337
H         3.91149434710592    5.06347410356889    4.51840222301343
C         9.08056546477992    5.63174554325310    2.85470356890136
C         9.01934365474922    6.93066052913005    2.34661465774037
H         8.15273991193745    7.54369987155130    2.53735559378369
C        10.05701725018541    7.43765887211805    1.59461510436002
H        10.00118408933158    8.44417465001893    1.20706716374515
C        11.17955235970694    6.65507880219903    1.32214356597719
C        11.24025337112616    5.34798408638972    1.81255807663635
H        12.10284379783173    4.73588417347428    1.59557511446077
C        10.20532529758668    4.84816608704722    2.56823178788307
H        10.25035244436773    3.83753249486304    2.94665847011571
C        12.24076221335243    7.17814552942286    0.55401994083002

