29
CSD_code = NOQLAG | q = 0 | S = 0 | Stoichiometry = C10H12CrN4O2 | MND = 8
Cr        2.18374697536306   -0.05839498536096    2.58943358812069
N         3.74603696122552   -0.51729800640798    2.24140358528281
N         2.53538253683165   -0.33669085920195    4.18199922374179
O         4.88308954430057   -0.74686501744226    2.13699735035175
O         2.89618503337043   -0.49527634932048    5.27896570690871
C         1.48286705663910    2.08823637179110    2.97877179215933
C         0.32738209437180    1.29695990858409    2.78110024191759
C         0.32628570257265    0.86660501521720    1.43485385661735
C         1.50285922487550    1.31805504425293    0.82564649312980
C         2.23049470809341    2.07005869770145    1.78416213187187
N         1.37996908517039   -1.77784305533696    2.16692901892251
N         1.45719539623151   -1.85058886885847    0.83844062923159
C         0.84764966963006   -2.96593600585624    0.45751093426972
C         0.35863273522855   -3.63701467408932    1.59281877962383
C         0.72419748202709   -2.84134659375994    2.66455324762720
C         0.73654909706178   -3.36834048036435   -0.97041334889211
C         0.50866560735104   -3.01327333554363    4.12756316748763
H         1.70410860842140    2.67740288162472    3.85736122395021
H        -0.51089775442531    1.23200976645886    3.46113992851905
H        -0.47317681508062    0.33097526481218    0.94452392953384
H         1.74857734904188    1.22453825844353   -0.22099222158831
H         3.10327367698202    2.67357526349997    1.57767272786799
H        -0.17695937527533   -4.56470161112543    1.62027379452055
H         1.23913658107577   -2.63638883558909   -1.59658488040725
H        -0.30970849109403   -3.43555754067231   -1.26782076121073
H         1.19503174935818   -4.34400645020532   -1.12516060704826
H         1.46656449854293   -3.09935008589180    4.64214893143346
H        -0.07357652975289   -3.91064001529329    4.31629772078788
H        -0.02136240813422   -2.15360370206818    4.54000381527528

