58
CSD_code = NOQMOW | q = 0 | S = 0 | Stoichiometry = C23H28N2NiO4 | MND = 4
Ni        6.39474533455147    3.85360556054630   10.86406231835307
O         5.65650256642166    3.43763692799255    9.21937646079769
O         7.14342704465640    5.34965951710393   10.06954187908920
O         5.29718724928240    3.11462156958967    6.66401752830250
O         7.51074067897032    7.45841615250656    8.59363185756970
N         5.25146591493782    2.63999607224801   11.74836178446539
N         7.52350751455988    4.01948048827819   12.36420588589104
C         4.92882032545751    2.44724836036539    8.88010156651265
C         4.67838865289166    2.22092748549968    7.47623904506410
C         3.89112538277855    1.17528986149761    7.06871753548946
H         3.70964055156704    1.00155522712811    6.01911953798708
C         3.29745914553851    0.30885247547181    8.00282642451432
H         2.67988028706545   -0.50060490627317    7.64506293589687
C         3.49769484151552    0.49527040312294    9.33720986545424
H         3.04214054982508   -0.16532432950252   10.06094376076612
C         4.31348938385086    1.55174422920233    9.80182761808102
C         4.46354903499268    1.77526525976642   11.19039062042784
H         3.81673117048567    1.17729939192642   11.83837536218540
C         5.12238272507189    2.84500027184312   13.18116995822119
H         4.27663151171881    2.26372944703109   13.57273059543843
H         4.90594956318309    3.90690290283645   13.34716972446095
C         6.38906975611201    2.47015121956820   13.98084749827138
C         7.65602368960987    2.81693066351292   13.16902475514074
H         8.50095914067133    2.91658516266990   13.86366161285975
H         7.87525160855163    1.98453651461474   12.49006303234591
C         8.29594403284672    5.02161980228766   12.64441447281955
H         8.93319984297796    4.94720251849392   13.52990238013707
C         8.44085373406160    6.20458624239579   11.88249559164848
C         9.22979338497521    7.27131973486060   12.36918990997606
H         9.66675379365236    7.18633085918414   13.35383864837616
C         9.42606642535081    8.38874680691112   11.61528295998960
H        10.02124095636278    9.20840078734731   11.98757227205279
C         8.85842631179110    8.48807169692872   10.33322521617577
H         9.03671616414291    9.38514593118265    9.76035297890561
C         8.09994184100216    7.47005997973311    9.81593503843776
C         7.84917347450678    6.27620871411091   10.58826412024665
C         6.38612598452350    3.25672408169603   15.29327440731300
H         6.49870076576449    4.32119980022510   15.09858047353099
H         7.20333892100128    2.93200399700914   15.93353563975001
H         5.45202138371702    3.10198217934650   15.82862509172002
C         6.39162892328936    0.96762228546456   14.26949175788245
H         7.32373956208332    0.67253514788829   14.74616757522269
H         6.28366061201157    0.40301260378651   13.34582295547952
H         5.57153625320618    0.70635986269642   14.93459545795249
C         5.14071937142100    3.00012144538069    5.26927410355838
H         4.07811570952996    3.08517506789506    4.99636098440323
H         5.51080668206241    2.02356213341553    4.92228952651019
C         5.94104775917619    4.12481937130580    4.63033827746540
H         5.84933410601208    4.08287640551484    3.54840981815790
H         6.98696003479372    4.03246973979368    4.90865370815463
H         5.57484093405429    5.08269805946742    4.98847135801154
C         7.67429545045296    8.56628928076610    7.73995624207700
H         8.74157929724077    8.73254998525089    7.53038019947598
H         7.26767666122407    9.47415256005401    8.21057175619803
C         6.92579724260040    8.25870773712967    6.45196612733601
H         7.01656460801167    9.08952435911923    5.75752293298290
H         5.87662731558891    8.08439269082495    6.67269131517661
H         7.33400883629659    7.36035220398645    5.99786753929056

