69
CSD_code = NOQNOX | q = 0 | S = 0 | Stoichiometry = C32H22N6O7SZn | MND = 6
Zn        7.07645380074898    6.07091890916493    8.76043760374476
S         6.58072714874395   12.59982335431171    9.86544979510662
N         5.23507436745448    5.20134810415688    8.84923017181569
N         3.88961467012577    4.19370624705651   10.29520667808792
H         3.58418885556853    3.67825335221532   11.10369305651194
N         7.50860171133811    4.39847965938062   10.00344703674400
N         8.14544687190206    5.71598669439935    7.06976904671752
N         9.47906388129930    6.83247143089258    5.69958289088035
H         9.88602331869868    7.60535932354855    5.19931425042917
N         6.55957791346394    7.78885006120762    7.62883268877507
C         3.94796783300608    5.47077584685800    8.48274728883016
C         3.43699288787656    6.21108335115697    7.41966962416393
H         4.10135556649350    6.69133004987004    6.72075566854485
C         2.06643102869370    6.30252514904972    7.31265797688728
H         1.63404899709452    6.87395340687731    6.50591015087403
C         1.21124422553891    5.67612547987103    8.22575217275409
H         0.14475396481825    5.78077619280475    8.09976855123806
C         1.69603986039232    4.93132614943493    9.28143654572864
H         1.03496876222471    4.44965621808015    9.98479397245101
C         3.07485236975842    4.83659679578963    9.39752843956336
C         5.17436994142655    4.44906229058435    9.93172448628561
C         6.37423811115292    3.99369605126301   10.59427013996995
C         8.66976186971447    4.06261854068071   10.53480859713059
H         9.54392003680204    4.43464579782400   10.01994450472447
C         8.77323091348642    3.29287719598878   11.68410777040586
H         9.74057390681392    3.04158355737288   12.08743897722458
C         7.60635932894611    2.86546940713459   12.30370408811596
H         7.64719774058183    2.27214985155786   13.20463116511283
C         6.38703618860918    3.21715629468496   11.75377444294512
H         5.46644684839946    2.90350826185944   12.22074310985062
C         9.08450880458844    4.84431059514956    6.59410395190481
C         9.27878891372900    3.48952933874314    6.84288365590680
H         8.62263621829363    2.95904489065216    7.51409194951013
C        10.33293530123316    2.87200416542652    6.20414530276593
H        10.51678784291446    1.82209059359658    6.37470999676670
C        11.17824420673235    3.56922664831584    5.33575953277820
H        11.99046553565685    3.04128738955837    4.86031171125800
C        11.00136822465903    4.91302028883574    5.07429060753180
H        11.65649083972364    5.44932059264347    4.40583085432567
C         9.94470974845271    5.54130410562145    5.71530844321669
C         8.41124725103174    6.89128913136127    6.53216763289085
C         7.61705861849109    8.06113347493396    6.84913439513881
C         5.76812995613528    8.78630015987393    7.99638019964090
H         4.92837032413340    8.51260100963863    8.61972570788635
C         5.99875842150070   10.10877979750941    7.64096762010461
H         5.39412276467431   10.90691982436087    8.05148961664125
C         7.10524276211023   10.39737921476700    6.85648047457559
H         7.33707112782200   11.42685825881690    6.63382521295026
C         7.91772005083088    9.35511630263796    6.43354542916720
H         8.78638511619342    9.55033615372537    5.82306133537812
C         8.34811245922712    9.07044519447181   10.61733386658976
C         9.66485509012417    9.41693259279941   10.88406695852225
H        10.42017615040143    8.64970330259266   10.95427241665090
C        10.00640523408691   10.75865823892481   11.05030050561451
C         9.04409944048889   11.75253574110825   10.84868332042367
H         9.31610408482288   12.79551953801351   10.89508561402423
C         7.74246218087307   11.39345587341785   10.57833084712165
C         7.38066185627579   10.06731144472248   10.50963107721808
H         6.34748768556791    9.82037434230376   10.32634231945800
C         7.96310320271853    7.70484049888537   10.18017839888683
C        11.39101614142185   11.15736061432303   11.37562673915088
O         6.80405442626591    7.26672962723778   10.38124248271614
O         8.77198022049291    7.05200716931553    9.47558516902352
O        11.78341545027439   12.29019712778917   11.49372034126415
O        12.22705701187401   10.11042185334028   11.54161083585621
H        13.11078695798110   10.44628065223806   11.75836052792550
O         6.63861811862621   13.79258414082498   10.67771142553062
O         5.28992551570021   11.91767285472244    9.83828099321826
O         7.18227382266037   12.71520423172383    8.53519163884504

