149
CSD_code = NOQPEO | q = 0 | S = 0 | Stoichiometry = C60H83O2Si3Ta | MND = 5
Ta        0.16078080260936    1.15918508373408   12.64827592692342
Si        2.76019485473839    0.63669679605876   15.26420704728961
Si        0.47788311137186    1.46248199682677    9.02967292436406
Si       -3.07375283829928    2.65730168053526   11.66440546108798
O         0.33959395800227    2.80644835556503   13.41810652851789
O         0.14461862925554   -0.56744877202532   12.04555446884551
C         0.72345252011787    3.78757595052904   14.23192307382745
C         1.67769257501208    4.74143215148568   13.81600937429111
C         2.19288072297497    5.65829850098792   14.73100978325355
C         1.72138275343995    5.65200481617292   16.03340065087414
C         0.71020766356487    4.79884072624963   16.44520345491655
C         0.20885371297248    3.85729684986389   15.54455919807766
C         2.04923943549404    4.85924345585201   12.38328412618069
C         3.27319280833450    4.43671823094305   11.87328032815804
C         3.57834332532112    4.62089512295484   10.53582285278619
C         2.67555347722195    5.24356890647736    9.69106549401141
C         1.47014986712139    5.69981445164117   10.19637902653964
C         1.16283336066459    5.51389403606935   11.53234051717293
C        -0.93022011348194    2.99902017529434   15.94821266138020
C        -2.19182320594538    3.24450740519011   15.41743012669543
C        -3.30029647958500    2.56145792021778   15.88816587424128
C        -3.16390797426913    1.61442622582373   16.88748079033559
C        -1.90834213938525    1.34075768982414   17.40371530544462
C        -0.80236806149624    2.03212901628969   16.94387044889324
C         0.26420601049741   -1.89106834846948   12.00868087275622
C        -0.77999221421690   -2.70462751392773   12.49314666946051
C        -0.64285618779722   -4.08956896547994   12.53512257595179
C         0.54373433319043   -4.65963430699741   12.10586948918325
C         1.57820440141573   -3.89552765672601   11.59190699371172
C         1.43136881300348   -2.50876367076661   11.51027433755024
C         2.51140024151994   -1.70316998322027   10.90024102055351
C         2.84436614837671   -1.90101264915864    9.56107114747833
C         3.92740764185664   -1.25030617252055    9.00060758951080
C         4.68933525630477   -0.38294135703605    9.76727732688780
C         4.35038694077036   -0.16193007831269   11.09008615728214
C         3.26674486905753   -0.81518841559043   11.65507168719277
C        -2.04378907987331   -2.09049808602318   12.96540744457730
C        -3.14827256322908   -2.03912242317919   12.11838535064653
C        -4.35661974930321   -1.53998051161762   12.57104177412852
C        -4.47556466760150   -1.08902397283108   13.87518100449026
C        -3.38129895845778   -1.13421598709364   14.72159517291044
C        -2.16964128067736   -1.62881344080156   14.27086193107555
C         1.03736388558869    0.20993695149738   14.61382505327017
C         3.69650040903134    1.82788494683550   14.09488449367941
C         2.80325967762009    1.50418349367992   16.97273170285252
C         3.78860363610563   -0.97030477529525   15.49462253458567
C         1.25749198584443    1.83302610434833   10.71586409356351
C        -0.57799568505863   -0.13418710288793    9.02294189793812
C         1.85408010230726    1.25692505542090    7.70846189362507
C        -0.54686605383448    2.94430981372187    8.37551033380748
C        -2.14214443349905    1.30559944024425   12.60181754855204
C        -4.69139674144411    3.17198164774025   12.56741573247127
C        -3.68484619990900    1.97636350770477    9.98060269007180
C        -2.01946823407007    4.23655621346357   11.45160332270548
C         3.23644106737241    6.67564213143903   14.32546716467865
C         2.70984742001179    8.09992934890184   14.51414868906489
C         4.53042738078690    6.46179054737841   15.11401475761375
C         0.13884682553730    4.96093575781596   17.83765326544498
C        -0.54024367034019    6.32760165551767   17.96440393629271
C         1.21244441750374    4.78838305007130   18.91393249275639
C        -1.74580054012919   -4.97231575319295   13.07542857511414
C        -1.27957933671371   -5.69815659400259   14.33957428658812
C        -2.21503734340498   -5.96942055072030   12.01443225695692
C         2.87028359891480   -4.58618072205052   11.21043042936675
C         3.50773894572536   -5.21496375307739   12.45301023687659
C         2.64719270641867   -5.63834886917944   10.12277703549120
H         2.12241784954300    6.36425339586506   16.73651351030614
H         3.99517538069561    3.97249609275816   12.52532446812451
H         4.52922668016719    4.28038857318821   10.15276871985435
H         2.91570511497807    5.38473894626773    8.64761703623649
H         0.76874624015401    6.20959107424686    9.55203115858426
H         0.23601945015851    5.89548256175505   11.93277516668505
H        -2.30462380919198    3.99694346524521   14.65129152242264
H        -4.27717091013091    2.77706618977670   15.48324448256658
H        -4.03465755398651    1.10284442734860   17.27195802343912
H        -1.79178412020999    0.59985837260933   18.18203056397524
H         0.16692394041858    1.83965824736914   17.37456344027243
H         0.66479819809649   -5.72883581732457   12.17233234993097
H         2.25611247091911   -2.58278368074562    8.96360751545558
H         4.18993138855445   -1.43294598091683    7.96814802496210
H         5.54241839464035    0.11667372980975    9.33250260304928
H         4.94177608994261    0.51167091356245   11.69160293433320
H         3.02071503922178   -0.66179000416892   12.69423489485435
H        -3.05250894178856   -2.39967220417244   11.10391671832122
H        -5.20749936109904   -1.50669232889791   11.90618725439562
H        -5.42084612078027   -0.70650477976778   14.23111977568776
H        -3.46973189200901   -0.78726511553472   15.73971823754434
H        -1.32307390397121   -1.68305544441021   14.93989507423249
H         0.28318743171427    0.46253621353563   15.36070932903459
H         0.97902958638768   -0.87109638753377   14.46301076332493
H         4.74732368958564    1.56714536917851   14.00507568886476
H         3.64232486225959    2.83959954623841   14.48613958226128
H         3.25780560400169    1.83147204278724   13.10022219055208
H         2.35159432709451    2.49026853457274   16.91952072335527
H         3.83081366443845    1.63557717903352   17.30031702825405
H         2.29320982559309    0.93030696136311   17.74105641446929
H         3.35594650592349   -1.59640881946986   16.26919880009575
H         4.80656318796697   -0.74134570124062   15.79475037886458
H         3.84221957058612   -1.56807273104417   14.59024350379175
H         1.40108891799587    2.90919787602648   10.78432362114080
H         2.25364740362789    1.39029753362802   10.72866818869484
H        -1.15338478985984   -0.23042063868933    8.10648652919290
H        -1.26904213759449   -0.15779616331419    9.86104872562196
H         0.05735323005651   -1.01071404466843    9.10330616342013
H         1.42978888133260    1.08387365658756    6.72426241193232
H         2.51185321360144    0.42613153097590    7.93651508576048
H         2.46624352043965    2.15158195642728    7.64791660195303
H        -0.92378778794794    2.73523296512152    7.37854094349221
H         0.08094092976422    3.82736587283941    8.30553090186104
H        -1.39289247992947    3.19127849190368    9.00283647157370
H        -2.48570182986296    0.35211420892643   12.20802278333825
H        -2.43467276946202    1.32897860716455   13.65162174729026
H        -5.37649329096990    3.65657950816943   11.87826213544980
H        -4.50818901761288    3.86656843354512   13.38024596475631
H        -5.20258911899245    2.30679051884428   12.97849660418057
H        -2.90330501807665    1.47395546423738    9.42365768037086
H        -4.08240483653727    2.76851130480530    9.35299045306603
H        -4.48527658947268    1.25962103697481   10.14014833241222
H        -1.97813702894034    4.79919755986719   12.37994673398076
H        -2.42338556706031    4.89928704197451   10.69172571390206
H        -1.00006875870606    3.98386187687417   11.17617443126286
H         3.46270507052916    6.54455413055261   13.26392737512057
H        -0.62579772372182    4.19764100229637   18.00068797045487
H         3.44254347301630    8.82028146816088   14.15662956457042
H         2.50744786600553    8.30957991521339   15.56134955357177
H         1.78875363870069    8.23635874166478   13.95202996866640
H         4.89706460465664    5.44785249797010   14.97073294384937
H         4.37119085350021    6.61973499747170   16.17771075846565
H         5.29546115428641    7.15707577606054   14.77516925120634
H        -1.00138373177759    6.42783111983707   18.94470657929925
H        -1.31324703922917    6.43345142720440   17.20650418418819
H         0.17687454978278    7.13476720289560   17.83773555029616
H         1.69574129367502    3.81915572092488   18.81892758071815
H         0.76159459971815    4.85254654819010   19.90202210252670
H         1.97505232052512    5.55921412372418   18.83820800801528
H        -2.59860719671263   -4.34374290428175   13.34686580489113
H         3.57192330686450   -3.84390726887687   10.82253870754043
H        -2.09535224522322   -6.28323904932262   14.75879737538511
H        -0.95087672713865   -4.97845069090055   15.08576764445465
H        -0.45251809585941   -6.36943587381191   14.12280234217619
H        -2.54318475123550   -5.44230678151431   11.12155556496528
H        -3.04787093311545   -6.55720456172621   12.39453836118372
H        -1.41505793558114   -6.65033648097096   11.73531377023875
H         2.87396964831398   -5.99473856210697   12.86752392188417
H         3.66321990399026   -4.45747882172821   13.21796609910414
H         4.47054294479208   -5.65366168279495   12.19968279844017
H         2.00330893877620   -6.43943433395119   10.47627911456432
H         3.59824956097197   -6.07311070827938    9.82258964390202
H         2.18267315486609   -5.18861916966280    9.24842294493064

