88
CSD_code = NOQQOZ | q = 0 | S = 0 | Stoichiometry = C44H40P2PtS | MND = 4
Pt        2.81749415020997    0.18705997913632    1.90354407786861
P         2.97538589065445    1.88720339656027    3.54779067162538
P         1.83097016323745   -1.38815488768073    3.33017524335957
S         5.50806988326770    1.53225331426420    1.46510080705959
C         2.58007817852744   -1.10355721542829    0.30202956940409
C         3.89377651867465    1.39910243898811    0.63603600259089
C         6.23257285260855    3.02822739980655    0.87034938898674
C         5.69893898216134    3.77850174326905   -0.16789056100494
C         6.31009319509018    4.95917961632736   -0.54886596055651
C         7.45858128863046    5.39597168990981    0.08689450171586
C         8.00341463578271    4.63565694085003    1.11077687898684
C         7.39604095204430    3.46082776343142    1.50247640075728
C         3.31783606404009    3.61040848761968    3.04943145908678
C         4.57762636802654    4.16055660552366    3.26777283954586
C         4.87872439758775    5.42393463228394    2.79420030881344
C         3.93390524094912    6.14480000002705    2.08424708594317
C         2.68129868147576    5.59984253735512    1.85531042391586
C         2.37343605131850    4.33875197733146    2.33164760709956
C         3.98061490524932    1.76524851304443    5.05921139769773
C         4.78423204062449    0.63896213861084    5.19350563798461
C         5.57240609285164    0.46961906574746    6.31778948778675
C         5.56377446717775    1.43158561446736    7.31382863547593
C         4.78855916944966    2.57248490205468    7.17083444135603
C         4.00541559058351    2.74796743930277    6.04484046141742
C         1.24137548016609    2.04331819637935    4.10235918943122
C         0.30630455638625    1.79313753387011    3.09783802838403
C        -1.04724354897407    1.88547592825468    3.35606435834300
C        -1.48137485095133    2.21861523855676    4.62913598522460
C        -0.55892571082254    2.44251513041922    5.63629785142183
C         0.79864683061655    2.35593366530172    5.37889253761762
C         3.18932898464557   -2.49192307061658    3.82730055045222
C         4.39421316839439   -2.35305585425734    3.14372020320492
C         5.47775254559816   -3.14787757185680    3.47171560123478
C         5.36374280327586   -4.08595672848257    4.48467734884709
C         4.16872535458436   -4.22258323519994    5.17416954416751
C         3.08346208736248   -3.42772212825599    4.85263602858817
C         0.60048156611923   -2.50367122127791    2.56954909299447
C         0.61771170892115   -3.88717116379687    2.68148475446945
C        -0.36763738094289   -4.64147007189293    2.06705017148430
C        -1.37162492526503   -4.02436378631134    1.34044650168690
C        -1.38535363002854   -2.64407696671533    1.21385577948002
C        -0.40074821663636   -1.88901538227190    1.82069137545789
C         1.02073357782767   -1.07296847770015    4.94006029855216
C         1.81404499982513   -0.76863944941058    6.04336966870484
C         1.23642200180827   -0.46467300325592    7.26046679421666
C        -0.14251711270744   -0.45531030281151    7.39144837610171
C        -0.93780538200227   -0.74641591368860    6.29650436022609
C        -0.36279976413160   -1.04844600375807    5.07545070214390
H         2.24898039521534   -2.10694183826115    0.58940727193293
H         1.82995259793012   -0.70140243829888   -0.38964014254061
H         3.50835205604770   -1.22594449903885   -0.26262115940574
H         3.45507121925305    2.40560485237121    0.61326490589401
H         4.07955923553105    1.06445797645637   -0.38780641458200
H         4.81118727879465    3.44909131279716   -0.68529653504987
H         5.88300229447639    5.53911350449725   -1.35469002031389
H         7.93012702794445    6.31931678856036   -0.21563805590308
H         8.90503546491421    4.96412208215842    1.60817023613061
H         7.80935454327903    2.86347820806831    2.30179952868906
H         5.32789819250924    3.59251802500820    3.79922306049157
H         5.86087156191536    5.83877009536124    2.96534616781130
H         4.17560189395206    7.12642363597641    1.70477425281830
H         1.94208920634720    6.15640365369702    1.29715264752463
H         1.39537648089348    3.91702207337536    2.14394832180923
H         4.79583291857887   -0.09516246784454    4.39714833748036
H         6.19240407771860   -0.41003107819575    6.41451784469857
H         6.17301388773508    1.30234082169851    8.19654316516745
H         4.80177180945499    3.33256062623773    7.93904724060169
H         3.43292247278828    3.65687033717827    5.91821777277104
H         0.66709424726807    1.51537514924095    2.10389825922734
H        -1.76561652378773    1.69567176561536    2.57117159844503
H        -2.53850867694629    2.29182030331869    4.83812886665428
H        -0.89771412997984    2.68544279862521    6.63300460413265
H         1.50496423274595    2.51336600066618    6.17987964761043
H         4.47223373495435   -1.60388139020026    2.35392555129548
H         6.41124701902455   -3.03150814776570    2.94147615551218
H         6.20728884059742   -4.70958158730198    4.74254008867420
H         4.08340760701564   -4.95092492840812    5.96793086860660
H         2.15787408611160   -3.52228828783375    5.40493350783387
H         1.40469263103556   -4.37955506133109    3.23399505656696
H        -0.34793341068893   -5.71844955502750    2.15363631219341
H        -2.13636262030541   -4.61903701877083    0.86271878365932
H        -2.15917207986015   -2.16108659505861    0.63482103582350
H        -0.38113997369545   -0.81250636555384    1.70580186782778
H         2.89046938937031   -0.77960451219998    5.94683088222886
H         1.86573529415655   -0.23591070162185    8.10863722988685
H        -0.59536967589264   -0.22069779559514    8.34353609922900
H        -2.01385478820061   -0.73660196463889    6.39229431855177
H        -0.99280072155249   -1.27344323201099    4.22684893068331

