99
CSD_code = NOQQEP | q = 0 | S = 0 | Stoichiometry = C50H44P2PtS2 | MND = 4
Pt        4.00953802171455    2.67237633130534    3.74080675267575
S         5.29450600546868    4.70845061908172    5.54843838798071
S         5.44478261939675    0.37360211922591    2.33377835594306
P         2.12932160075716    4.06546272887487    3.41381919515779
P         2.79867089567657    0.70564072016595    4.14302084472896
C         0.37459873143470    3.67120917753575    3.75217147123971
C        -0.37790300681305    4.27660918646665    4.75070357764765
C        -1.68445604461175    3.87845222239667    4.97397253723368
C        -2.25228320155475    2.87342030344602    4.21080364369310
C        -1.50771620998348    2.26614378637756    3.21253797928119
C        -0.20433290152015    2.66120222089019    2.98716610330320
C         2.06011749455745    4.26532098240164    1.60525542033744
C         3.09838377643148    3.73025680534421    0.84912136465645
C         3.08070202636250    3.83393998682973   -0.53055489111445
C         2.02732047868780    4.47565227127840   -1.16055601412032
C         0.99012392181798    5.01080032596878   -0.41139157242128
C         1.00096956023933    4.90523021493853    0.96693578732651
C         2.26181496209712    5.77246145685405    4.03904734274450
C         2.40127411906361    6.88315531318852    3.21546608489922
C         2.56211150167150    8.14056491056429    3.77113191049421
C         2.58386142556252    8.30084784366899    5.14576841163969
C         2.46292106231793    7.19570098430783    5.97157156105093
C         2.31928281993509    5.93546568586631    5.42226628693646
C         3.64665020807677   -0.68389207061280    4.96926834727692
C         4.12732134291278   -0.52487358134043    6.26644195870069
C         4.87042983225043   -1.52737984411469    6.86146896181856
C         5.14723183460571   -2.69436657928670    6.16842371388608
C         4.67630056925490   -2.85595197416332    4.87691923283101
C         3.93603840070576   -1.85477203726000    4.27539562355352
C         1.65446538345116    1.23806218826580    5.46392113412463
C         2.18896781194726    2.20838783975075    6.31266590497418
C         1.44594528981016    2.70363138855148    7.36688141599172
C         0.15127854414116    2.25258050849669    7.56852836740048
C        -0.39345561212530    1.31274103217482    6.71110170287846
C         0.35295373801928    0.80176558689190    5.66291740854498
C         1.79408935788454   -0.16388432231087    2.90334245867172
C         1.01940909078026   -1.28200261765443    3.19859834924341
C         0.26498589057658   -1.87719587242417    2.20402167279794
C         0.29154029387427   -1.37631178128628    0.91145213582995
C         1.08978108014402   -0.28670144647711    0.60529719781431
C         1.83956361810794    0.31605028854515    1.59911639844992
C         5.17880629763805    4.37353209178283    3.76529860220808
C         5.59558780457614    6.44250617689652    5.69429385722535
C         5.47435651971148    6.99853913026313    6.96533529866522
C         5.67802240201792    8.34943140138874    7.15514105111143
C         5.99978405863421    9.16420829857945    6.08035928187009
C         6.13195314630999    8.60921015703031    4.82008633359997
C         5.93922611132093    7.25387745234104    4.62260723234874
C         5.72728933861490    1.54390585468231    3.69493911700508
C         6.46996121135263   -1.02512425011194    2.67609583358947
C         7.41775603052171   -1.05052442205078    3.68857032342750
C         8.15247513576784   -2.20077408566318    3.91305131619147
C         7.96101636913938   -3.32408365338036    3.12863697170176
C         7.02765981806102   -3.29099624257188    2.10352505082129
C         6.28481588219210   -2.15084517090712    1.87750161885239
H         0.04664452517820    5.06881115925116    5.34904139145481
H        -2.26231589051749    4.36000381027102    5.74941826626215
H        -3.27230337226922    2.56691486339432    4.38983581766220
H        -1.94167394547548    1.48268142453168    2.60792990804327
H         0.37357244465146    2.18915849570037    2.20502116228943
H         3.92427909435644    3.22690576679019    1.35868474160905
H         3.88641426017224    3.41148223967015   -1.11240294789283
H         2.01092151542599    4.55848119214424   -2.23741751010624
H         0.16932970295185    5.51055550564368   -0.90522808571666
H         0.18915226586363    5.31392396946623    1.55383573827769
H         2.39630537619127    6.76636144989961    2.14051621824270
H         2.67735370370035    8.99876659279988    3.12515911992969
H         2.71236707225320    9.28352530070109    5.57386909197064
H         2.49632811244909    7.31629566610950    7.04402419830881
H         2.26688025367911    5.06360683210999    6.05972654617665
H         3.92418633281097    0.38796063579557    6.80886809289859
H         5.24162570946177   -1.39320477612947    7.86715403184378
H         5.73413091516190   -3.47360638696626    6.63139141812730
H         4.89985700372035   -3.75788180947129    4.32682779416792
H         3.59544695567944   -1.97745547071453    3.25744575062849
H         3.20087494019163    2.57810625797907    6.12904776032346
H         1.87190125044878    3.44340672446953    8.02981168456805
H        -0.43580848914333    2.64133042281605    8.38751967337601
H        -1.40851375108657    0.97313675636325    6.85748004266305
H        -0.09220618944598    0.08241944470269    4.99241258612961
H         1.02731666619122   -1.69776816718250    4.19696669157924
H        -0.34142164139505   -2.74127956271071    2.43492065374575
H        -0.30030344812696   -1.84710240633423    0.14010874857415
H         1.12908599507592    0.09222045452814   -0.40554753926229
H         2.48369716209009    1.15721623567223    1.37301486756758
H         4.68794289477008    5.23851291677132    3.30384896571367
H         6.19739501438626    4.29531330362865    3.37250162095811
H         5.22261697017901    6.35390627937359    7.79417128436858
H         5.58107952974569    8.77243562904948    8.14502613975227
H         6.15136004768834   10.22350198304759    6.22665608654118
H         6.39354185750263    9.23401351413990    3.97800966964062
H         6.06506991217527    6.83829519865671    3.63446903569363
H         5.81300730703530    0.96530570234009    4.62271035892875
H         6.67455134606616    2.05231233680701    3.49600776491673
H         7.59131503219332   -0.18118592777008    4.30347732812113
H         8.88457006263237   -2.21310813183542    4.70776869589783
H         8.53851965281578   -4.21843701924601    3.30969303228879
H         6.87721359924603   -4.16070462549674    1.47994006542289
H         5.55207578432006   -2.11444942149087    1.08489962352722

