83
CSD_code = NOQSES | q = 0 | S = 0 | Stoichiometry = C43H29CuF6O2P2 | MND = 4
Cu        3.90708785093708    6.44304740966063    4.01631257075901
P         3.76020722892754    4.25749519840882    4.14066171751459
P         6.20059127716855    7.06287122252679    4.40637548827985
F         7.85214827779527    2.20012609756114    7.86771420264282
F         4.24505077353701    1.56763529385500   -1.10247311028304
F         9.90012514830168    7.28142492167664    9.02933007164884
F        -1.49408907075491    2.46221462306923    6.17259536367046
F         9.01413876776010    3.68037177905642    0.45347991526889
O         2.82941967678803    7.91797665314722    4.72523302481383
O         3.79146210087945    7.48926491919291    2.31076826093487
F         5.76877522640734   12.59933168243699    2.38996181616152
C         4.95801029496681    3.46618905060861    5.25152269763856
C         7.18111292515587    6.11926066766419    3.19475172830901
C         6.90192323832497    2.61296175713081    7.00740077676570
C         7.20086049438762    6.29882469271601    6.85263656507307
H         6.38845668342588    5.58698430778085    6.80294974309077
C         1.81434868602020    2.29002827487929    4.75038700143268
H         2.50953930602353    1.55513701428338    4.37233555458421
C         2.15818896243362    3.63880355205548    4.75348934467873
C         4.14582426587587    2.15522850747170    0.10420226088677
C         8.05143437518914    6.31221903650876    7.94164291527978
H         7.93891445977619    5.61576837533927    8.75748901201075
C         9.06574986662744    7.25356760278391    7.97297811338294
C         6.53235182161511    5.78876297886783    2.00324519329390
H         5.54048049760802    6.17908268273327    1.81972094102454
C         6.23405623657687    8.76186207680918    3.75319470692503
C         8.41232585150686    4.48896863031334    1.34824797051574
C         2.74489982025458    8.87435079076195    3.88867285394113
C         5.61096478005104    2.79897414115402    7.47220504971102
H         5.38224071915554    2.60867234375889    8.50906277716203
C         3.95229605838260    3.34903084670450    2.57332049030598
C         9.24793290091504    8.17285870821988    6.95329541589378
H        10.04875291317571    8.89270445350111    7.01975004999561
C         8.39568070354998    8.14217556326063    5.86567035688026
H         8.52628761228321    8.84809996609229    5.05809517872869
C         1.25987814304500    4.58942504170875    5.23089108686396
H         1.54603585597166    5.63433535930711    5.21747680317269
C         6.50126914935158   10.39559705782578    2.01196973915664
H         6.81457840662916   10.67753206384369    1.01893226038862
C         5.65512228869364    9.73282772956939    4.57086645013640
H         5.31521590688988    9.45521059598865    5.55991310528117
C         4.64158088115075    3.23628461747747    6.58908949806646
H         3.63146741057146    3.40226058001672    6.93521184062212
C         0.02420103199068    4.20047258549915    5.71417532694631
H        -0.68747561143353    4.91821574291307    6.09046078736628
C         3.64257823610037    3.44267789452397    0.18575363651116
H         3.33772257518059    3.95768366472804   -0.71171286199591
C        -0.29409082875051    2.85354888411865    5.70519266608469
C         4.45732673754033    2.05696034552237    2.46497440305512
H         4.78437054339527    1.52332724642046    3.34580534842132
C         6.65191191785927    9.09982773416563    2.47145230220647
H         7.08608242535587    8.34992117425894    1.82693805213018
C         3.30042790181748    9.57487828033491    1.48655459983428
H         3.74757646469917    9.17236353382505    0.58397162147490
C         7.14572535040178    4.97579605659682    1.07055551771470
H         6.65776490050217    4.70911424900108    0.14625614393223
C         6.26972276362292    3.28208055854589    4.81320496243002
H         6.51761688094077    3.47618943926794    3.77981171429979
C         2.13787234957574   10.06955892832397    4.32225318343636
H         1.79568530328989   10.00285194576264    5.34922863114350
C         5.50621563481200   11.03072980890008    4.12554626823327
H         5.05648580272223   11.79248161722006    4.74226231716595
C         2.26849531923467   11.65929601649336    2.39780307438255
H         2.02359339933443   12.67583306107859    2.12022679614525
C         7.37280254459043    7.20032945116424    5.80575480205700
C         3.55204751849166    4.03672908060882    1.42942036210224
H         3.18367311698144    5.04966404619973    1.52999174381754
C         8.45293187727112    5.61616978825461    3.44914315276279
H         8.95704048840226    5.85563741710026    4.37338243397533
C         5.92692738449033   11.33966370227511    2.84375822179655
C         0.58165019594130    1.89080571707307    5.22940461759910
H         0.28988264970567    0.85230000084956    5.23850797208211
C         1.93712405833908   11.27464783415562    3.68904869930559
H         1.45193254754883   12.03512530571791    4.29053424067666
C         7.24711068977249    2.84837286707666    5.68703144188209
H         8.26442471180620    2.69771207099972    5.36241758216937
C         2.87229092553345   10.88303028799613    1.42256940546637
H         3.03506164894611   11.37421568032585    0.47018202622029
C         4.55820006453943    1.45448630823204    1.22476799347578
H         4.95036059891139    0.45545552068038    1.11560262065358
C         9.07619358644290    4.80012462723884    2.52199714296360
H        10.06321092778244    4.40231016526903    2.69930474475010
C         3.28772659325574    8.63836249323766    2.53538950277906

