81
CSD_code = NOQVEW | q = 0 | S = 0 | Stoichiometry = C40H34N2OP2RuS | MND = 6
Ru        4.07465977088349   10.74799772873344   14.21069444798020
H         4.02907637426587    9.20718493200392   14.19342892693085
S         8.55881289866041   10.57641987298969   12.56819498473362
P         5.28847788889692   10.61691051801145   16.19841710330918
P         3.22331447337334   10.74278045765626   12.04869642124159
O         1.34177754544857   10.80580752763260   15.42471732186105
N         4.31896870226480   12.67710714927875   14.13464865773371
N         5.92505066880346   10.68123344756934   13.37687485814286
C         2.40431344314706   10.79681521624540   14.97341523018362
C         4.67935030211107   13.75965964364336   13.98356280066015
C         5.09097087341876   15.12096131199670   13.80065223675105
H         4.34102069600396   15.65928033392083   13.21965448566119
H         6.04211882217420   15.14154226765997   13.26831271751520
H         5.21687352744161   15.60175036943173   14.77134480719208
C         7.04521931858510   10.60794694953714   13.03440322474339
C         4.39113906403052   10.08193416067248   17.69009616539222
C         3.23666010397927   10.78198627042288   18.03732477518421
H         2.92431354696759   11.62324537674865   17.42971617724374
C         2.49613233508659   10.40539413416675   19.14090528076430
H         1.60365623124707   10.95392708534310   19.40472135954973
C         2.89497677270252    9.31764925947575   19.90228025899534
H         2.31358568524747    9.01841377326776   20.76187385215147
C         4.03334311670694    8.61082010058833   19.55470769327920
H         4.34041020082250    7.75835270108002   20.14298067571807
C         4.78182694646533    8.98793654862290   18.45260855428290
H         5.66664029026180    8.42956947007905   18.18202502739694
C         6.76906317258036    9.55813223224053   16.21518470348909
C         6.84467386803683    8.45824167600293   15.36849154151455
H         6.02197011334546    8.24804137738625   14.69834577653687
C         7.97289645362505    7.65800812044730   15.37007935303162
H         8.03303783241504    6.81493394248112   14.69781674916239
C         9.02774601618429    7.94567467460931   16.21952488069433
H         9.91449984404127    7.32906560100677   16.20999911809152
C         8.94815410286370    9.02914854214443   17.07965028292448
H         9.76829407764947    9.25292027786330   17.74660629194385
C         7.82451554219328    9.83406450439312   17.08193434100439
H         7.76701815606887   10.68099044550223   17.75273345840553
C         6.02469925905013   12.21390524500329   16.70313708971807
C         5.63290030019451   12.94456780386097   17.81860311879544
H         4.88720791583046   12.55029270329307   18.49381251815244
C         6.21264143264728   14.17484256215776   18.08150754058599
H         5.90645319665600   14.73297240380313   18.95475944236842
C         7.18328919804124   14.68684623591031   17.23775758822493
H         7.63352490247925   15.64610079184069   17.44892705090050
C         7.58327190390376   13.95950598666759   16.12691278404392
H         8.34995444772522   14.34671888196559   15.47129233919874
C         7.00709210224302   12.73320269314945   15.85870928521706
H         7.32462101191728   12.16096509645960   14.99681312254051
C         1.83985889561926    9.64295899096724   11.59880396842044
C         1.28500941206881    9.71647348008939   10.32297988708243
H         1.67890561716275   10.42246712472986    9.60500682830977
C         0.23660340953852    8.88651363428120    9.97598546852901
H        -0.18983356520411    8.94457728458612    8.98503334891357
C        -0.26826069950829    7.98137303283328   10.89722812968658
H        -1.08919655093250    7.33524135779376   10.62296672368880
C         0.28092230853453    7.90559541846793   12.16572094194422
H        -0.10981452338308    7.19958282956076   12.88352561853287
C         1.33323251918132    8.73365949341028   12.51825515820987
H         1.77738930198524    8.67520997049330   13.50380598781403
C         2.53073124734656   12.32957069015428   11.45235194624579
C         1.71300505733111   13.02542358908827   12.33899917591509
H         1.54474668373788   12.62102185172716   13.33006357948993
C         1.12053373333629   14.21612100455237   11.96270303839093
H         0.48729822438326   14.74754145640616   12.65845419854416
C         1.33864273558856   14.72552915452349   10.69248347509664
H         0.88020227422174   15.65765837372326   10.39629514856385
C         2.14237109753085   14.03409130840473    9.80167827736549
H         2.30810765947513   14.42515838049882    8.80814083506943
C         2.73422515360549   12.83955104478798   10.17432725321039
H         3.35974763053268   12.30918860762570    9.46987923080280
C         4.47929209981705   10.33542280786933   10.80523956120115
C         4.57538970740126    9.05465458285946   10.27409244539147
H         3.83517571073756    8.30973340110384   10.53361249744152
C         5.62333894725535    8.73777838766329    9.42751082430425
H         5.69748260934841    7.74138792803890    9.01628466316765
C         6.58316762150787    9.68701310653261    9.11995444151320
H         7.40678031903226    9.43223176168133    8.46961861391289
C         6.50175513778537   10.95969986523489    9.66325065180633
H         7.26442138775902   11.69200879892743    9.44317862767979
C         5.45849048872323   11.28226058620261   10.50861082160089
H         5.40266389986366   12.26613229012687   10.96040221113747

