87
CSD_code = NOQVIA | q = 0 | S = 0 | Stoichiometry = C40H36N8P2Ru | MND = 6
Ru        5.45497238292155    9.04479556844289    4.11904484791142
P         7.77863168059526    8.89165644928308    4.16089297417258
P         3.13415486575502    8.88752609564462    3.96109577992369
N         5.59338812372812    8.55675082168878    2.09682609548672
N         5.82697097810077    9.26520855075320    1.19710387333017
N         6.03792960386485    9.87256196521204    0.25623211022595
N         5.41101622799858    7.05767217425353    4.70877101353681
N         5.27588652568877    6.03209183502750    4.16157612783677
N         5.15671453775796    4.97129973240422    3.77037012235656
N         5.37352135750649    9.55878408938515    5.93563628095154
N         5.49005569038022   10.87507568831753    3.48432755001740
C         8.64172224783821    7.45237850921688    3.45023548112420
C         9.97665712852340    7.22099001520249    3.77788361767351
H        10.48992354455121    7.88963989936443    4.45567054887038
C        10.64190191590517    6.13761489652444    3.23731999992557
H        11.67693831598227    5.96160607257344    3.49340221621178
C         9.98369496166385    5.27583156455437    2.37303078648744
H        10.50632288646020    4.42569656063922    1.95942271847038
C         8.65991253433671    5.50603661466093    2.04130001379934
H         8.14225938402124    4.83699126644493    1.37076060784282
C         7.98968634744863    6.59345317528492    2.57408062838868
H         6.95921289805822    6.78345244572188    2.30838382578152
C         8.49772759985392    8.88684329788766    5.83688157929299
C         7.93655347398143    7.96359983744039    6.71701843406385
H         7.12683767181027    7.33355698579079    6.36603684760954
C         8.40615351725820    7.86114683970844    8.01248578445521
H         7.96994055901301    7.14083920680366    8.68986377717048
C         9.44012960707111    8.67981321159092    8.44097915309411
H         9.80862052829046    8.60300866236408    9.45380026022141
C        10.00618544640253    9.59237717423550    7.56684755163211
H        10.81890584756508   10.22364916836641    7.89686244205470
C         9.54145108658447    9.69730574284029    6.26657972852785
H         9.99658743081133   10.40600483573239    5.58848602108378
C         8.58235932349327   10.28878473160769    3.32248759024817
C         8.44336139968754   11.55742608207393    3.88442447884537
H         7.93914893501553   11.66064194952306    4.83881796262146
C         8.93713408174036   12.66742166671495    3.22715487031362
H         8.83995635267826   13.64746953403915    3.67408946004675
C         9.54923124053420   12.52453100451960    1.99074319742531
H         9.92844375577632   13.39370665829249    1.47307830305581
C         9.66419331786798   11.27026525066652    1.41583253315601
H        10.12599249575329   11.16084187885183    0.44598849143097
C         9.18222668417076   10.15350986787538    2.07594100519135
H         9.26450542715906    9.17573237445413    1.62260300419921
C         2.37762953560708    7.40170722651186    3.22734270030096
C         3.04229394683512    6.74392091593395    2.19636521994368
H         4.00113803502892    7.11862773496194    1.86141541698772
C         2.48643649573396    5.61815171826015    1.61715983624533
H         3.01489123071767    5.10626302728701    0.82732481362768
C         1.26349092584412    5.14347690345837    2.05948750500405
H         0.83207419984190    4.25938362977207    1.61343288490775
C         0.59388338131602    5.80005706133829    3.07953540597252
H        -0.36113747526419    5.43109383948591    3.42548235039874
C         1.14459813387611    6.92490133930870    3.66508754031407
H         0.61937368890689    7.42846668408272    4.46473613985155
C         2.27717872167482    8.95076413736196    5.56897622590002
C         2.75777776111224    8.06972782368107    6.53646845880723
H         3.58789568932722    7.41904770867580    6.28543097756586
C         2.18174933960881    8.03094386531133    7.79172020438224
H         2.55525058509094    7.34232647560641    8.53626306966597
C         1.12117257785574    8.87192859818975    8.09337856417280
H         0.67002409575001    8.84510065263686    9.07479074548542
C         0.63406796947286    9.74122711445916    7.13191264749161
H        -0.20025755942598   10.38830292079856    7.36208627726685
C         1.20518860480585    9.78189627885997    5.87098602137269
H         0.80929651479000   10.45357982463295    5.12218934947576
C         2.39178961845681   10.24406111009338    3.00494943230911
C         1.84592766249249   10.05507977205002    1.74108240479250
H         1.76927301824691    9.05709176249039    1.33312246649255
C         1.40481671643369   11.14359229820685    1.00843739220971
H         0.98148642892412   10.99231197055262    0.02642837657888
C         1.50799370421747   12.42306695999583    1.52730854079921
H         1.16217572325232   13.26972904982705    0.95219271101570
C         2.06228183623960   12.61863094100583    2.78366335961579
H         2.14686542621250   13.61756576734696    3.18923581864623
C         2.51192855492355   11.53655627670483    3.51492297246355
H         2.96395466134635   11.68009825226817    4.48988342531058
C         5.35804026139349    9.83780617700306    7.05583892267617
C         5.33253948807995   10.17554055710842    8.45270501218712
H         5.35636483216688   11.25827273982577    8.57926371562778
H         6.20057250655206    9.73878185414786    8.94824192168556
H         4.42131893807213    9.78306529110287    8.90585801174640
C         5.54363651446916   11.72369410430543    2.70369593166554
C         5.61431833501888   12.74079035260038    1.69798585652573
H         4.66869957201144   13.27990079627517    1.63945545688278
H         5.80812640139787   12.24062282382115    0.74550078744282
H         6.42795347946489   13.43255571057763    1.91498543239214

