27
CSD_code = NOQVUK | q = 0 | S = 0 | Stoichiometry = C6H14Cl2HgN2S2 | MND = 4
Hg        0.64544825009910   10.92061007109084    4.47054579989602
Cl       -0.85083737135860   11.01856715839495    2.55346829161839
Cl        1.12533653126686    8.95275273228066    5.50524851333350
S         2.72247309855089   12.36957886980583    3.27544875324298
S        -0.72937903601421   12.84920703537070    5.97901528219767
N         2.61254203242182   13.12085207058815    0.73892821191613
N        -3.10423280944614   13.75388854045523    5.23480542440384
C         2.01845463079411   12.59647166105278    1.78644167362670
C         1.91958173107138   13.27964718401377   -0.51480875982006
C         3.98266792173076   13.56568251040663    0.75659824194055
C        -2.02471398267143   13.05806720722913    4.95877076529420
C        -4.18262174971937   13.87238883506582    4.28594787097505
C        -3.30132545023996   14.42795310485722    6.49264854590125
H         0.98336166006569   12.29503301766210    1.64860496537701
H         1.89143835729489   14.33507382627634   -0.79474473495242
H         0.90191762271617   12.90467147378992   -0.43440645444131
H         2.44006152335023   12.72805075779343   -1.30054530383183
H         4.55388759356491   13.04166192601935   -0.01162792210032
H         4.41322237342313   13.35801292229550    1.73394193791993
H         4.03054765104968   14.63865348322145    0.56063083855310
H        -1.99335129389805   12.59444372518280    3.97636528544900
H        -4.34201642195998   14.92242047873143    4.03068867308236
H        -5.10459004190331   13.47870516402675    4.71916065506194
H        -3.95185123552651   13.31642724301436    3.38015568733885
H        -3.44822492345034   15.49603478396558    6.32408060527488
H        -2.42546296707570   14.27726448357397    7.11971855591127
H        -4.18183369412738   14.02697973384700    6.99761859682895

