58
CSD_code = NOQZUQ | q = 0 | S = 0 | Stoichiometry = C18H35NP2PtS | MND = 6
Pt        0.42777368619251    3.92193747621040    6.44130509803928
P         1.04905446900068    4.81548905435525    4.11750020006061
P         1.80406158017228    5.71947873068156    7.62603649588528
S        -1.90134525099057    7.73018164007982    5.06650593701078
N        -1.08251614992671    5.39991364814458    6.30634687640512
C         2.04208364426468    2.56200923681000    6.39613452514338
H         1.89314142525203    1.89841802627693    5.53853037475438
H         2.90820865732051    3.20241023508545    6.18607468813092
C         2.31195425588728    1.75108426976657    7.60030151562815
C         3.21504471634568    2.18310587886943    8.57259460827328
H         3.74131514576618    3.11648861081696    8.42351534437730
C         3.46093740296065    1.43819447472893    9.70970667362127
H         4.16521120321961    1.79753809039400   10.44744033476181
C         2.81449501428973    0.22904611775070    9.90176615791859
H         3.00416120518032   -0.35469881306850   10.79030095247854
C         1.93398889644396   -0.23061324562711    8.93622617010924
H         1.43829280700330   -1.18155200766558    9.06968187972342
C         1.69085885317955    0.51646218711552    7.80049561012791
H         1.01113614394809    0.13990608387713    7.04991496933282
C         1.47862001844829    6.57902054923792    3.83656890682991
H         2.35429757528415    6.86950530492480    4.41293782847098
H         0.63130686124945    7.19292400514301    4.14055408730632
H         1.67472369919629    6.74341555500325    2.77695958196243
C        -0.31714298056981    4.69588155195445    2.90137637016242
H        -1.15220558677635    5.29486154309525    3.26021552512245
H        -0.64586431476841    3.66584506526400    2.78613145674905
H         0.01547144918607    5.08271329287876    1.93798606511738
C         2.40038300407928    3.99152249583533    3.17613948373086
H         3.34778035514911    4.12711988643994    3.69450948182739
H         2.47347591173906    4.41089683250546    2.17362636156664
H         2.19513941487565    2.92500980947594    3.10781599560472
C         3.55834143644992    5.99433637790200    7.12639495152033
H         3.63333038944478    6.10382421821219    6.04652164554229
H         4.15968727658332    5.13832517870830    7.42483207080386
H         3.94857074908962    6.89050516914537    7.60727548630102
C         2.03832256983549    5.61156183772760    9.44644754954112
H         1.07134131963777    5.67044819572154    9.94066983007144
H         2.66732259229525    6.43502405010474    9.78402489406003
H         2.50469797624640    4.66512692755098    9.71000926076255
C         1.15919641646379    7.43208907234611    7.52151838088513
H         1.09736351408167    7.75220633705711    6.48450357187002
H         1.80264705755438    8.11287618557506    8.07901006073574
H         0.15365591353420    7.45516782631812    7.93741358152883
C        -0.72704293636926    2.42144445073486    5.54475504454467
H        -0.32080908274845    2.27768474595956    4.53505611808705
H        -0.59720313700328    1.47825534029302    6.08325139886983
C        -2.21119194190521    2.72500333680195    5.44690166016743
H        -2.71117780757550    1.91802192134883    4.90551578789388
H        -2.40097643492781    3.65428784067055    4.91517076120069
H        -2.66365498269010    2.79448053648755    6.43285517543520
C        -0.24606823951127    3.22914777546529    8.30131777032332
H        -0.60580597283971    2.19961519417646    8.22548099549087
H         0.61869283613245    3.22335489175889    8.97291233374410
C        -1.33776624992310    4.09637717884211    8.90090405307070
H        -1.59523468070158    3.71867570860197    9.89331406159738
H        -2.23816898582883    4.08565138461797    8.29167175058930
H        -1.01685683496443    5.13212910618682    9.00600584233398
C        -1.41325587296136    6.38596362532799    5.76136640679539

