57
CSD_code = NOQZOK | q = 0 | S = 0 | Stoichiometry = C20H32P2PdS2 | MND = 4
Pd       -6.68114937166821   -4.40638728535742   -1.47111883544296
S        -7.86747344735775   -5.53559472409383   -3.15113154046033
S        -5.49907230953460   -3.27876117980905    0.21152892273327
P        -5.47114482614403   -3.45934430276977   -3.13733792584139
P        -7.88365029509906   -5.35738235426294    0.19790921151434
C        -9.13952770664603   -4.20525517628820   -3.00121338418520
H        -9.99992402884472   -4.65389473339911   -2.49183600252486
H        -8.73087419927060   -3.38704396365855   -2.37129178659782
C        -9.56443444659670   -3.66472836688011   -4.33013115066891
C        -9.69298706617640   -2.29508180319291   -4.52579406844955
H        -9.48425942901400   -1.61586037877521   -3.70911400179429
C       -10.08662756991131   -1.79512912071596   -5.75446190451182
H       -10.18177652721392   -0.72779085872518   -5.89441867970565
C       -10.35400584610452   -2.65911994935113   -6.80222842239755
H       -10.65670892264935   -2.26832870285831   -7.76266836610653
C       -10.22962104967486   -4.02569852578381   -6.61435166456300
H       -10.43633005597067   -4.70467944191931   -7.42877957400207
C        -9.83922505489705   -4.52528962736522   -5.38600790004010
H        -9.72458743816637   -5.58885234206381   -5.23583008545111
C        -4.23078976987609   -4.61243792699136    0.06221640865807
H        -4.65814948053193   -5.45130598137779   -0.52674374254504
H        -3.38814433274595   -4.18036426464685   -0.48988423393358
C        -3.75977507761299   -5.10681702955740    1.39369793730489
C        -3.61488767251993   -6.46827752420537    1.63091420339873
H        -3.84565615595858   -7.17666028361610    0.84543229322342
C        -3.17495384367401   -6.92359346028083    2.86127126734272
H        -3.06838631752489   -7.98512687013896    3.03413365413317
C        -2.87506485177546   -6.02265979329800    3.86861558717581
H        -2.53474406924174   -6.37856724086531    4.83002353262309
C        -3.01520598378491   -4.66385455375987    3.63902155263695
H        -2.78248032301071   -3.95585513378744    4.42135720130105
C        -3.45400146340152   -4.20907861769894    2.40969373155973
H        -3.58204366252074   -3.15194169028201    2.22791653169854
C        -6.29029944056838   -2.88337147548913   -4.66603568001595
H        -6.93546130974280   -2.03451399588659   -4.44262587386949
H        -6.89785670519690   -3.68832586400963   -5.07667974348925
H        -5.53312041184861   -2.58447912899105   -5.39055447766385
C        -4.30651074430031   -4.70990333188432   -3.79486642218204
H        -4.89057442383627   -5.56082574109101   -4.14909046573959
H        -3.63806991825518   -5.04677284357130   -3.00119556583263
H        -3.72228163769794   -4.29289252831997   -4.61487521300866
C        -4.37619437122527   -2.03797834983733   -2.77131185245356
H        -4.99261275971438   -1.19027058053323   -2.47248572737251
H        -3.78991354015617   -1.77796120953544   -3.65243266713350
H        -3.71425285486041   -2.27967575161950   -1.94199166744553
C        -9.04733818656293   -4.11373176212031    0.86972446598829
H        -9.72431250820961   -3.77734101549289    0.08315608882289
H        -8.46400401759964   -3.26159890323014    1.22206590347488
H        -9.62260853653306   -4.53630154636612    1.69323849761600
C        -7.05192658195696   -5.93786622615444    1.71833788328731
H        -6.40948488649429   -6.78682754043634    1.48762409505813
H        -7.80337944899608   -6.23812423304665    2.44831086551658
H        -6.44078514069189   -5.13417218236227    2.12631545697525
C        -8.97916152875272   -6.77883815179238   -0.16606975784609
H        -9.64924745928429   -6.53217809048863   -0.98724901559532
H        -9.55676465233940   -7.04581622844582    0.71865519506877
H        -8.36447634008229   -7.62337011151105   -0.47675308829674

