58
CSD_code = NOQZIE | q = 0 | S = 0 | Stoichiometry = C19H33NP2PdS2 | MND = 4
Pd        3.90437707287077    3.55320799362914    1.30653257805250
S         2.75093496875215    3.71061748011322   -0.67523806822708
S         2.74733861015696    1.57212745151298    1.22615925991857
P         5.26746896925262    5.38842537519489    1.18079045371130
P         4.67670991244438    3.32701572019988    3.43970555313853
N         1.16116014100798    1.64803317442276   -1.00778233714286
C         5.08547828839350    7.08430679988879    0.48270840787255
H         4.46089252776476    7.65895554599420    1.17290196838713
H         6.07100895761546    7.55761265584743    0.43005408212137
C         4.42069979678115    7.01824829996326   -0.88716252510321
H         4.23160680917915    8.01767781609011   -1.27254210062225
H         3.47398819674110    6.48377601170111   -0.81615534024466
H         5.04620626402044    6.48680291706323   -1.60132916239942
C         6.75435722008287    4.72308831868741    0.29501604735950
H         6.80749910204714    5.21841700645646   -0.67869329988317
H         7.66087019331782    4.96964049409168    0.85733306790934
C         6.62666968869841    3.21142366081179    0.08647084015177
H         7.46914905953363    2.83166151306539   -0.48977158768050
H         5.70015600569994    2.98696698194430   -0.47106700424225
H         6.60131422046800    2.68254210124001    1.04867543621095
C         5.90041876077789    5.77203561833921    2.88316136997904
H         6.83570728762587    6.33651943932881    2.81201276823398
H         5.15289106617359    6.41951543073786    3.35300266746174
C         6.08228976652261    4.50586574475296    3.71404710582335
H         6.17395826196311    4.74852561316711    4.77639224943237
H         6.99062760054962    3.97920884367098    3.40270651135655
C         5.19389945432607    1.81581002080008    4.35627992842756
H         4.35120389399772    1.12235788891435    4.26089546883071
H         6.03199923872381    1.37789260446876    3.80455600653451
C         5.56516216556548    2.01831018286223    5.82005090393572
H         5.77413918041635    1.05451190786645    6.27975172508534
H         4.75289882672499    2.48672053355265    6.37015835923449
H         6.45376162195086    2.63692731605600    5.91768396636567
C         3.28668143937236    4.00714267189516    4.45877930045162
H         2.79244004849485    3.15462193081479    4.93586951452605
H         3.67358170261990    4.67218387718811    5.23720399751459
C         2.27806824269091    4.73501121898151    3.56462720046024
H         1.43002586873233    5.08480206665606    4.15136393211117
H         1.89686621358605    4.04552943817608    2.78877920507170
H         2.73864553687241    5.60025446861711    3.07369097160203
C         2.03726574571582    2.17859418800437   -0.28871653270264
C         0.57112537077562    0.38441083794003   -0.67079633612424
H         0.99645536735579   -0.01064612513710    0.27099343555158
C        -0.93933614378117    0.58070358260614   -0.49101921733156
H        -1.12993019678223    1.27340545074882    0.32592744158907
H        -1.41430328579298   -0.37283623374829   -0.27188233341301
H        -1.36127986076576    0.99118550570294   -1.40473583462281
C         0.81985034521109   -0.60657511165414   -1.78127495136850
C         0.81599224084389   -0.18882299599213   -3.10520053908744
H         0.67432880143948    0.85965796261440   -3.31835394737667
C         1.00898885978191   -1.10094818058735   -4.12659721339352
H         1.00769380028890   -0.76621455581065   -5.15435945174411
C         1.20235678058055   -2.44096842893474   -3.83581457254842
H         1.35115068651822   -3.15442879000217   -4.63397642152745
C         1.20888225267114   -2.86299665840659   -2.51753627775560
H         1.36368225118950   -3.90712068451925   -2.28395664347297
C         1.02081351312266   -1.94945144145865   -1.49529640231042
H         1.03221128912141   -2.28054245610026   -0.46572362411179

