70
CSD_code = NORBIH | q = 0 | S = 0 | Stoichiometry = C29H29N3O2S6Zn | MND = 5
Zn        5.10805392719884    3.46708555890624   11.41273339303282
S         6.54950326962921    3.25920087219316   13.43212653956691
S         3.04723785495067    3.80988882227640   10.04386887780178
S         4.37637353058535   10.47644587956247   11.05413772750328
S         5.00173963814767    1.08481623197489   12.20213644754639
S         4.86886642016459    5.92457490843221   10.96545558876504
S         4.95034639482684   -3.05624131896608   16.47793606328331
O        -0.45472575118594    7.30856941222022    9.45515807117057
N         6.47602820212053    0.77834018715064   14.35691829453179
N         2.74747494913922    6.37366146014575    9.47246628220041
O         5.77773353418259    1.94411080638311   17.17228518213583
C         6.04239280279187    1.63420664573900   13.43008364930579
N         6.56912687158518    3.11594219457342    9.85489615787554
C         3.03398868681095    7.78440574949758    9.62106398142990
C         7.60109972519111    3.93803011529126    9.70573523144427
C         7.34011185794543    1.18722763208596   15.45531885899650
C         4.16312019718188   -4.50397107664083   15.98111066945475
C         3.49388654709657   -2.99364429286129   14.37446224958337
C         4.27012547832753   -2.18299482833497   15.13974510859363
C         1.83832851736052   10.80639422265959   11.03394416544043
C         6.02536695117043   -0.59696307104515   14.37478819373872
C         3.47794532156540    5.45512355421362   10.11045799415920
C         2.77209738069602    9.81820055346657   11.02819147764779
C        -0.15611535727080    5.49718885796464   10.71556892629413
C         0.31829230059062    6.21623770523182    9.65839079796288
C         6.67103948710460    1.01238239098000   16.77759845233187
C         3.75511012502517   12.08116150489199   11.07723545835256
C        -1.42809858543691    7.28154783778603   10.38209377852340
C         4.60016525220792   -0.74785685929819   14.93760678448811
C         6.75298430895288    0.02101634170799   17.71348020086535
C         8.56712120476044    3.75049860743277    8.73243500604289
C         2.40018899452818   12.10364858250349   11.06617899550356
C         3.42867381468340   -4.32168163796912   14.85733301004681
C         7.37211581623393    1.80842379548613    8.03823682579142
C         2.55748107969466    8.34782286546686   10.97133854497679
C         1.51446366048899    6.01847514816654    8.78688874655250
C         8.45146812502643    2.66352984815767    7.88032117480255
C        -1.29606218354046    6.19330985309513   11.18626852030275
C         5.85161452585480    0.37648772677635   18.74575539051336
C         6.45514355015258    2.07349530432436    9.04046216654948
C         5.28924084390755    1.55282621500567   18.35823809733376
H         1.49589985811298    8.13693309374827   11.10778684520057
H         6.72191715338509   -1.16526687243504   14.99428997819068
H         6.04702822461174   -0.98953985498620   13.35418395084963
H         2.85785876714796   -5.10104314953293   14.38512262094138
H         3.11580872265886    7.85097270608326   11.76792954545607
H         4.11474797538325    7.93270639921268    9.53939589290063
H         2.53740059843059    8.31702882526461    8.80746643335599
H         0.77961852797386   10.61603677824413   11.02219088107848
H         3.89161700595295   -0.30589856611164   14.23596871057902
H         4.43772100869639   12.90712083645911   11.09907087424754
H         8.25154447920011    0.58183325967956   15.42692363088560
H         7.64538501187788    4.77287936657959   10.39177964024145
H         7.59455888139029    2.23892581136167   15.30603747464714
H         1.42046626483898    6.64930823763437    7.89935999151960
H         2.97943479794314   -2.65142751957950   13.49451942031638
H         0.25743700419454    4.58772543399152   11.09944185932510
H         9.38970898070629    4.44262593461882    8.64739561433928
H         1.58647920298077    4.97035854803767    8.48731864717767
H         5.59869870209443    1.43425440624443    9.20624126044112
H        -1.92547857609655    5.91734595434608   12.00690601187349
H         1.81677463336605   13.00680882174369   11.08026406989046
H         4.53198775959430   -0.21391071562076   15.88692977607497
H         4.55940801912624    2.18670498001628   18.82126891057244
H         7.37326583199709   -0.85091315141180   17.67686915806846
H         4.29634234339569   -5.39702618239263   16.55841676879302
H        -2.14493630886794    8.07821832043332   10.36252003044528
H         9.18677267193138    2.48658760140488    7.10934044852325
H         7.24045195946680    0.95034795388256    7.39839817512137
H         5.65303122838365   -0.17162156218657   19.64311229705411

