47
CSD_code = NORDAB | q = 0 | S = 0 | Stoichiometry = C20H21Cl2OPPtS | MND = 4
Pt        0.59529429012518    1.09608947286265    3.28790783261193
Cl       -1.14841428313750    0.98062078072724    4.77797536025435
Cl       -0.66142687241696    2.17997950852813    1.74968639406568
S         1.74508043524855   -0.04481250391137    4.88128410977325
P         2.37388161331725    1.04286822547430    1.85917482676284
O         3.15646342558660   -0.28059789074395    4.59632896236023
C         2.82470987758803   -0.70701122446419    1.70828576973853
C         4.10620792444043   -1.22190212024894    1.83605243192881
H         4.93856879332899   -0.56194452438961    2.02538417050264
C         4.30353408110675   -2.58996397948343    1.75372614170878
H         5.29956450339160   -2.99358557763721    1.86023780410057
C         3.23221802725165   -3.44269046376153    1.54552031939773
H         3.39461633608726   -4.50874821046392    1.48606040730658
C         1.94864520276075   -2.93138722766302    1.42494828542791
H         1.11141044970521   -3.59651769778463    1.27105538604447
C         1.74440810133481   -1.56740169374026    1.51256427568508
H         0.74454961059632   -1.14716331676381    1.42978190391337
C         3.82734954036860    1.96275075603821    2.42487504477714
C         3.75354406994215    2.65882001771442    3.62460377205019
H         2.82522100732300    2.63875376947452    4.18686870756660
C         4.84558107763876    3.37475933590579    4.07925113681804
H         4.79011906610500    3.91460489010822    5.01295631454684
C         6.01151669395437    3.40260904441141    3.33134102090435
H         6.86673948679060    3.95776559639937    3.68705926260349
C         6.07971415704125    2.73134589498135    2.12044219014638
H         6.98498824334431    2.76949698473401    1.53239791951826
C         4.98900192503705    2.01636207252766    1.66077897251914
H         5.02763689099715    1.50879950005243    0.70620750595535
C         2.21021710325524    1.62064954780518    0.14749429224657
C         1.97489888566367    2.98159758518606   -0.03222258567132
H         1.89958430277287    3.62290260177023    0.83529072988479
C         1.82032838784868    3.49331822887339   -1.30515985821943
H         1.63011462377154    4.54689306428380   -1.44362182348528
C         1.89866205731946    2.65102215929212   -2.40393186266135
H         1.77210984774498    3.04993099579439   -3.39942234699993
C         2.13161272039150    1.29795103951426   -2.22700405897820
H         2.18916615926167    0.64221284499508   -3.08346185479366
C         2.28505588619915    0.77721613238974   -0.95335453160870
H         2.46034437656391   -0.28068787541543   -0.81667231866723
C         0.98061601950314   -1.66256975297174    5.20017851155637
H         1.04986097594022   -2.24336449137674    4.28588814769615
H        -0.05561859171410   -1.48272771274260    5.46349850872661
H         1.52077715752926   -2.15738904494699    5.99855664381417
C         1.64259345845690    0.62905794567057    6.56893108917095
H         2.10168507534393   -0.07485689787155    7.25255190178844
H         0.59252857725280    0.78533139003940    6.78880547200679
H         2.18063930203901    1.57061282082663    6.58599971520494

