69
CSD_code = NORDUT | q = 0 | S = 0 | Stoichiometry = C34H24Cl2N8Zn | MND = 4
Zn        6.33962170682499    3.36819716589718    2.31522741633215
Cl        7.49820792731865    5.19981922102853    2.50008424236450
N         5.83980795929836    1.09426711032991   -1.02699414887822
C         6.03248619511815    2.25801645970220   -0.45967591437980
N         6.86179338653759    2.23808473288231    0.59628744611377
C         7.21400298802871    0.96378730263773    0.70654863911657
N         8.03048739580420    0.41103313216047    1.57484782992237
C         8.17585327628888   -0.90320064744008    1.52104907771479
C         7.52593751936501   -1.67929767699444    0.54211003390663
C         6.70867495928888   -1.09431387194073   -0.40484551873471
N         6.56542748054359    0.24796872685201   -0.29499079605570
C         9.03535723475169   -1.49561984597067    2.55008214391926
C         9.99811783746501   -0.69559525597253    3.16683625284787
C        10.81369232661976   -1.21714901744054    4.15193075853595
C        10.67150246767045   -2.53838692455192    4.54582508255685
C         9.70529283341461   -3.33452566356528    3.95308928515887
C         8.89359474561032   -2.82113714610244    2.95943269492356
C         6.01564810115380   -1.84820310090806   -1.44731904593992
C         6.50861244131525   -3.08993551524293   -1.85911986348027
C         5.84284525406268   -3.82692495104842   -2.81790085902698
C         4.67369416734088   -3.34283861874181   -3.38334842049219
C         4.18426052721284   -2.10851413497045   -2.99167560013397
C         4.84661071612539   -1.36178394507824   -2.03560589044800
H         5.56489354350679    3.15374283000315   -0.81661456325623
H         7.67020620979946   -2.74509647949071    0.52697210889944
H        10.09228681558873    0.33197531905178    2.85175769266432
H        11.56184524243014   -0.59185296234820    4.61493447767344
H        11.30761769838561   -2.94726300236408    5.31589501565473
H         9.58269148268394   -4.35985161688814    4.26889418674553
H         8.13286068960436   -3.44876084265694    2.51987267590395
H         7.43338358421685   -3.46977161930086   -1.45241651788071
H         6.24033803922079   -4.78109059394453   -3.13024123087073
H         4.15494899412748   -3.92233252738283   -4.13209348048208
H         3.28056075019632   -1.71948477649873   -3.43536294829690
H         4.46089513156628   -0.40048869735685   -1.74135793171542
Cl        4.15324772188017    3.04893363932783    2.06323257936205
N         6.92571188828360    2.13923465253704    3.88672273365131
C         7.77333679580883    2.15455179883326    4.92330663212554
N         7.90043850116909    1.00402684524368    5.53811115789304
N         7.09191711003034    0.17884425151969    4.86431257572985
C         6.48663898857745    0.88829002567493    3.83801095850814
N         5.65271920659528    0.36005095841835    2.97937421334713
C         5.38480322498400   -0.92820994319566    3.09863608958781
C         5.95022764451129   -1.69751585705435    4.13745537098291
C         6.81748604984751   -1.13683250207121    5.05363610241520
C         7.42589943343452   -1.88610756884479    6.15168518726184
C         6.80777084102108   -3.04212523013144    6.63712001512312
C         7.38659184092475   -3.77360472733098    7.65502951349468
C         8.59176499240002   -3.36966711966472    8.20732297809894
C         9.20497709793135   -2.21839657482768    7.74316996196215
C         8.62984026278835   -1.47725355944408    6.72822895921750
H         9.10999657944833   -0.57851290280701    6.38016635553790
H        10.13705044350560   -1.88976867940397    8.17720467498126
H         9.04219734434871   -3.94428635837666    9.00251657805012
H         6.89232998645003   -4.65980052930903    8.02410901561463
H         5.85417166866131   -3.35568672651329    6.24112962774886
H         5.69970092117245   -2.74075011691687    4.21939876621684
C         4.48442866029335   -1.48113618850706    2.08705275129534
C         3.61372851092909   -0.61115157208215    1.42599584931185
C         2.75645514803797   -1.09716079710138    0.45759393414704
C         2.76758410205071   -2.44281464764110    0.12504776274462
C         3.64421226450914   -3.30615797449373    0.76251782584844
C         4.49532641484281   -2.83269200994196    1.74242551600281
H         5.18377246747686   -3.51300237773114    2.22244983438677
H         3.66383415945029   -4.35211530649555    0.49393816147489
H         2.09834134530685   -2.82138232672465   -0.63286280208839
H         2.07760452211651   -0.42087372313609   -0.03860733619856
H         3.61803521889885    0.43688531552917    1.68997137073579
H         8.30520101386511    3.03511526633341    5.22348275453650

