79
CSD_code = NORFIL | q = 0 | S = 0 | Stoichiometry = C24H46N2O6Ti | MND = 6
Ti       -8.13194271568799   -0.31448367342572   12.24047577501191
O        -7.01060007291319    0.10440983828535   10.85006433927918
O        -9.21620749874125   -1.36679617353091   11.35093181351484
N        -6.83438413734582    1.57734722104582   13.02219341015777
O        -4.69195167120649    2.13217261389721   12.70711404515716
C        -5.78986476146810    1.45155493237681   12.31900614261219
C        -6.55604371313901    2.51841556873042   14.10189419742859
C        -5.75664245486079    0.61095136575027   11.06794477099278
C        -9.10953615525628   -2.32743485197745   10.35066172078037
C        -5.03837864355221    2.80722047121479   13.91364792804552
H        -4.81690652198107    3.87080097966064   13.79383800865007
H        -4.42918433670049    2.40163634572473   14.72745996048111
C        -6.89044723171018    1.88937310587558   15.44908872928696
H        -7.88251765637820    1.44855866896016   15.37658226556356
H        -6.87088611444633    2.63742232113359   16.23914385563034
H        -6.18197699033846    1.10128287244975   15.68735767828140
C       -10.24217444868757   -3.36466619939208   10.51352885615280
H       -10.20858242674069   -3.79682491946713   11.51103862573047
H       -10.14072674175840   -4.15788115501516    9.77650357750794
H       -11.20920991078301   -2.88273009197951   10.38184742177046
C        -7.74054349868988   -3.03157790998888   10.40553914392399
H        -6.97988535922896   -2.25726887261315   10.50965767682212
H        -7.56838835723845   -3.61115310169126    9.49996510830093
H        -7.68836974271312   -3.69658392770983   11.26382299328160
C        -4.70887154924329   -0.50674513513905   11.28423908069452
H        -5.08515551225429   -1.16735205997018   12.06568730139147
H        -3.75166019989627   -0.08125200241717   11.57711513956994
H        -4.59028105421209   -1.07054899928006   10.36110584019178
C        -5.30293535665402    1.51473981837404    9.89597739972511
H        -5.27210558002855    0.91997933903307    8.98614170424675
H        -4.31826105026701    1.92932219094339   10.09536926266919
H        -6.01525554911004    2.32529537389585    9.75626199623600
C        -9.24139138806814   -1.65094565457747    8.97311357589875
H       -10.20479927005285   -1.14984962633455    8.90245026635319
H        -9.16629636741562   -2.38257958409159    8.17127540568168
H        -8.44380355833260   -0.91782300084245    8.88116924951084
C        -7.39607946930590    3.78004071113565   13.88843085679047
H        -7.10636463263797    4.27923847778082   12.96655793912247
H        -7.26304175896168    4.46856478096775   14.72068576233254
H        -8.44275641648164    3.49614178085237   13.81736380105095
O        -9.25328100879574    0.10440594615235   13.63089165963939
O        -7.04768289206354   -1.36680833118900   13.13001134954867
N        -9.42949340001836    1.57735049778254   11.45876942149068
O       -11.57192808755305    2.13217043592173   11.77384243951118
C       -10.47401482801530    1.45155545832270   12.16195318028137
C        -9.70783361289856    2.51841625252192   10.37906594236354
C       -10.50723791606518    0.61095075376887   13.41301390383513
C        -7.15435552096440   -2.32743878465055   14.13028927183958
C       -11.22549892997185    2.80722064064000   10.56731078545281
H       -11.44697047354044    3.87080125816603   10.68712297659779
H       -11.83469290317159    2.40163942973864    9.75349686960323
C        -9.37342904965972    1.88936773272413    9.03187461253344
H        -8.38135992833092    1.44855055149856    9.10438515172186
H        -9.39298655624309    2.63741316737961    8.24181560968893
H       -10.08190086655270    1.10127816372223    8.79360780987396
C        -6.02170888874022   -3.36466370571110   13.96744023870081
H        -6.05528960089384   -3.79683039812284   12.96993325910760
H        -6.12315781905763   -4.15787387848271   14.70447058241762
H        -5.05467791751891   -2.88272024384526   14.09912594588326
C        -8.52334282317246   -3.03159247671061   14.07540747014300
H        -9.28400409572870   -2.25729033828392   13.97125827399430
H        -8.69550904426028   -3.61114591197362   14.98099328525261
H        -8.57549906801151   -3.69662167448399   13.21714052111662
C       -11.55501158741868   -0.50674308072823   13.19671989637510
H       -11.17873386730927   -1.16734670530818   12.41526588267890
H       -12.51222410838996   -0.08124706283682   12.90385198195792
H       -11.67359670993016   -1.07055106271667   14.11985130189496
C       -10.96094136423271    1.51473932645482   14.58498266592925
H       -10.99177436916130    0.91997752669451   15.49481730211370
H       -11.94561380899285    1.92932616221318   14.38559091403180
H       -10.24861771348678    2.32529156885694   14.72469961370741
C        -7.02251641362553   -1.65093581984668   15.50783193879819
H        -6.05911032653637   -1.14983676629952   15.57849940452579
H        -7.09761757478786   -2.38256139993018   16.30967723844151
H        -7.82010688507769   -0.91781402119136   15.59975906592219
C        -8.86779867104335    3.78004242915050   10.59252452404535
H        -9.15751085504956    4.27924152779505   11.51439758081056
H        -9.00083973999211    4.46856548715393    9.76026915868166
H        -7.82112089924854    3.49614550700568   10.66358834365907

