41
CSD_code = NORHOR | q = 0 | S = 0 | Stoichiometry = C18H16Cl2N3PPd | MND = 4
Pd       -0.84266781669260    1.85171399836190    2.11631842255874
Cl        0.42416952209213    1.98963163846205    3.93325714654196
Cl        0.91433614163073    1.40082638838403    0.80282035600424
P        -2.73851257510007    2.57856948606579    3.08641309474620
N        -3.79111685771105    2.41157743480374    1.73192485129173
N        -2.00581280022973    1.71983061694625    0.49061909500910
N        -5.79407444346421    1.80662798709883   -2.87599841677723
C        -2.62542367145274    4.39625437178373    3.23272964533812
C        -1.48078599259305    5.00388237365808    2.72015252971201
C        -1.35296749138018    6.38070471859360    2.76176180375700
C        -2.36506621008080    7.15328135219320    3.30994777036386
C        -3.50616869283890    6.55148680261973    3.81649060220600
C        -3.64038705877914    5.17509370235036    3.77945516206215
C        -3.81373214658129    2.11758451326946    4.46670635061075
C        -3.37910003669933    2.48914173255523    5.73803860093538
C        -4.11182154629127    2.12504139185730    6.85085612419277
C        -5.27230882113209    1.37954432611316    6.70247165705350
C        -5.68974059477647    0.98416527098061    5.44205906710341
C        -4.95842392306087    1.34196883617086    4.32288631537281
C        -3.25494616615125    2.02730920947703    0.53379977735273
C        -4.14485369489637    1.95940873779366   -0.63882030079451
C        -5.49421723986369    1.62338682919473   -0.51763816884831
C        -6.26476957999777    1.55716889403702   -1.66728517816087
C        -4.51782403946240    2.12739580943249   -2.99437673981702
C        -3.64898813116202    2.21434092630691   -1.91843221094095
H        -4.72010716259473    2.81508607088745    1.73093530439595
H        -1.62558032362351    1.38564363904281   -0.39221221506686
H        -0.67714105724147    4.38128790785646    2.30466171722026
H        -0.46244104963860    6.85106385354745    2.37363567353955
H        -2.26272796225260    8.22740498674296    3.34744435027929
H        -4.29155056708656    7.15617050921129    4.24535937106628
H        -4.52473161924162    4.70262405832324    4.18534286661121
H        -2.46167451530498    3.05472629917631    5.83412837194413
H        -3.77729108285210    2.41468296780990    7.83521839299931
H        -5.84552764509320    1.09512849647935    7.57196696540303
H        -6.58463080065832    0.39007615276258    5.33078504307831
H        -5.27189057676380    1.01197855322213    3.34238910706498
H        -5.92812845013428    1.38658775806214    0.44186068205626
H        -7.31225675876957    1.29170826483776   -1.61858985255686
H        -4.17518112822814    2.32324988857461   -4.00113951224119
H        -2.61793543383783    2.49584324495888   -2.06744362266589

