57
CSD_code = NORJUZ | q = 0 | S = 0 | Stoichiometry = C18H30F6NiP2 | MND = 4
Ni        1.88918569177339    1.20164067698584    3.71229280319465
P         3.30929088779614    2.84265094677703    3.53430728256686
P         0.38339399140529   -0.30371144273669    4.19939765848989
F         0.76422319929031    2.43074822438184    4.35723118700447
F         4.50386845879215   -0.73353058555407    4.69373867956867
F         5.86870874418542   -2.37738473056977    3.02959118619560
F         5.17856474852321   -2.56151567861450    0.39551200948975
F         3.09040883943284   -1.06991986037741   -0.57086174891408
F         1.71589212825448    0.59730034099607    1.16983293590567
C         3.05946663069894   -0.03564339887015    2.95732110263112
C         4.12858319738985   -0.80554340205013    3.39761741148724
C         4.84286297752924   -1.65183687767846    2.55615464389694
C         4.49569790324982   -1.74740221494089    1.21375355953468
C         3.43501438826291   -0.98941610224704    0.72403276389802
C         2.75830395723059   -0.16423153683259    1.60386659684951
C         5.01242496100037    2.57836486622035    2.86117531489832
C         5.87326771556017    3.82469661439494    2.70615770112116
C         2.68182690973595    4.34278840868973    2.67719671018359
C         2.43640968273232    4.07909679759307    1.19697798761621
C         3.58995784443044    3.44974505091367    5.25019814501710
C         3.67367813097480    2.25658743509802    6.19567853547712
C        -1.31365697844772    0.29525870728254    3.81885850949060
C        -1.40109052610654    0.77859822969199    2.37711863329191
C         0.24974441961157   -0.64647262201494    6.00443534102987
C         1.47787693795615   -1.36814091659064    6.54512743567023
C         0.47311807756053   -1.97605926686143    3.41212257694418
C        -0.60426766637054   -2.97396960901210    3.81443221730109
H         5.49746534483040    1.86988752631933    3.53835678803634
H         4.90698293042878    2.07633546411499    1.89551202560127
H         6.87898122793073    3.53903488563771    2.40324435152539
H         5.94912925622149    4.37457544257153    3.64130688749297
H         5.47092150564076    4.48938613483135    1.94620615921585
H         1.73785986084854    4.59000914317269    3.16810952641856
H         3.38204359431384    5.16804304484183    2.83053749577361
H         1.99008730410406    4.95036432696693    0.72181073140847
H         1.75466784440570    3.23813989205855    1.08148934273119
H         3.36313660479217    3.84260959334602    0.67745677066733
H         4.48963701826387    4.06652972662705    5.30213391843214
H         2.72418255339197    4.06262490080108    5.51010192298462
H         3.70856107156522    2.57875403459745    7.23424945407103
H         4.55385499885218    1.65048960490512    5.99115793497132
H         2.78378199026464    1.63247207301964    6.05286788704415
H        -2.04409215481760   -0.49000812457389    4.02761146807112
H        -1.49690659708752    1.13344941787673    4.49464379441621
H        -2.37480200384467    1.22028562956122    2.17637469168292
H        -1.24058975385240   -0.03672304104689    1.67460996220846
H        -0.63510685239600    1.53574409372753    2.20747365402740
H         0.14792548352238    0.33050032232562    6.48483264438464
H        -0.66301979740422   -1.21568945676477    6.19859147543478
H         1.44433371704855   -1.41703268547312    7.63167402119477
H         2.38533690179109   -0.84150817900173    6.25400370110774
H         1.53625525324437   -2.38420880060876    6.16134456644633
H         0.44315456000561   -1.81351516965512    2.33124933577067
H         1.46221534830555   -2.37940790055691    3.64579268483568
H        -0.58764324000688   -3.16427077420755    4.88448551157548
H        -0.43398740916564   -3.91955084970201    3.30265639555430
H        -1.59452181364505   -2.62041832968224    3.53924771701058

