87
CSD_code = NORLEL | q = 0 | S = 0 | Stoichiometry = C42H42P2Pt | MND = 4
Pt        2.84907066040495    8.82435566329256   18.33834438604278
P         2.59528588655965   10.52352517205144   16.84093717529212
P         3.23966842637942    7.02875312965697   19.67633693843089
C         3.07782819012020    7.61388011748498   16.76555637223303
C         3.31514893276357    6.95911772338805   15.77111557520784
C         3.66808311925150    6.22387321588183   14.62092419942394
C         2.71907147718460    5.59152670919094   13.81989999234313
C         3.10702480509270    4.89462912145543   12.69228758269013
C         4.44882063870744    4.81603221067322   12.34140746338663
C         5.40659263811194    5.43433724771622   13.12091192464313
C         5.03227102933085    6.14133519253268   14.26311054120979
C         5.99103255895308    6.77087067512876   15.07240432167175
C         6.77803496505894    7.32255635282515   15.81604872636335
C         7.73600846334983    7.87936036827512   16.58253585428261
C         8.60798368228317    8.36130844250502   17.27871381964683
C         9.72865023522458    8.82297083561635   17.98640946856197
C        10.99966360790145    8.45542849007527   17.53266737754427
C        12.13480431608562    8.87431229192387   18.19415410612692
C        12.02514117776145    9.67219179448193   19.32663505318948
C        10.78151558528086   10.04706791996747   19.78976956675836
C         9.61683158341149    9.63359448257177   19.13427532799817
C         8.37940966380886   10.05207874103124   19.64839889960864
C         7.39726986195781   10.50300448135593   20.20489473767735
C         6.32730126181573   11.02227303190169   20.83844736427258
C         5.43747102731176   11.55131030530777   21.47540261780928
C         4.37105988754963   12.13752549874165   22.17551810271192
C         4.60423517942717   13.04765582687822   23.20620646339163
C         3.54407609624898   13.61773903994537   23.88310766877026
C         2.23905028148399   13.28682554379298   23.54037913085875
C         1.99033061886442   12.38743996250549   22.52228873346384
C         3.04461539557397   11.79967649833292   21.82564803426229
C         2.84047926895879   10.88042684296007   20.77772643912356
C         2.72586292943926   10.07829425704022   19.87376551757610
C         1.50917422649395   10.22548042384753   15.38026825347849
C         1.48744942368695   11.32906819135500   14.33097852763027
C         4.26360404828470   10.79422489523537   16.11519016587230
C         5.30799424187999   10.66889035529828   17.22004076708823
C         2.12906886519284   12.20484549158396   17.43158020263234
C         0.71270316588161   12.21726454228279   17.99039758934246
C         1.92129923208142    5.77272349564498   19.39907673477131
C         0.58220986003848    6.46859526291958   19.16755015203721
C         3.36715816943029    7.19421241838901   21.50996363488972
C         2.06020814306749    7.60605740545317   22.17284318465541
C         4.78052195457251    6.10082268279346   19.29161776304670
C         6.01065987423763    6.96028267422423   19.55827716314961
H         1.67489553998091    5.65505867448901   14.09454178900842
H         2.36176863851080    4.40822585740070   12.07881083488604
H         4.74471052607790    4.27007299982531   11.45727812804984
H         6.45324637359114    5.37749055323175   12.85547209512653
H        11.07550550610418    7.83409405664670   16.65148738896661
H        13.10882777244090    8.58111351553922   17.83089810459193
H        12.91406121477836   10.00009284748170   19.84526507664279
H        10.68756713067806   10.66837120595315   20.66910430876558
H         5.62302837304123   13.30014088133529   23.46622093413435
H         3.73095087075411   14.32260630389365   24.68039136653663
H         1.41323121537705   13.73654590874861   24.07353592679020
H         0.97528384648904   12.12874291087144   22.25349319207935
H         1.86497147098648    9.28799949649724   14.94270175197124
H         0.50016780890205   10.04015635889041   15.76194012993395
H         2.48914877063472   11.53308830318256   13.96027928289854
H         0.87194471101806   11.02112809625224   13.48748302280889
H         1.06950835988869   12.24976697441584   14.73123138555866
H         4.42147821631632   10.00931859416870   15.36970064293608
H         4.32382859315598   11.76960623825681   15.62490407701904
H         5.15718538134759    9.72122598644688   17.75263872531713
H         6.31722723392876   10.67413766343400   16.81330075581355
H         5.21927178234616   11.47940422582373   17.94104200167705
H         2.83712225475387   12.45617219523453   18.22586831728475
H         2.24711780723849   12.92905963064372   16.62121075983261
H         0.49558763318511   13.17199553833760   18.46517648055455
H        -0.02241896530403   12.04842408891533   17.20580656971360
H         0.61128452649770   11.43007970809468   18.73743890143984
H         2.20749342755949    5.22396291701698   18.49725893953821
H         1.87319935522335    5.06932729379717   20.23475938194955
H         0.18780079015571    6.88686343169211   20.09012964012619
H         0.72161484136528    7.29047311950849   18.45255947185772
H        -0.15202271703019    5.77615052316215   18.75991327434735
H         3.73047368195643    6.24595182551532   21.91957740362396
H         4.12133268680036    7.96527697808430   21.69199518579407
H         2.23118979718696    7.85334616599094   23.21892773195059
H         1.65642216233982    8.48619201644971   21.67496070094892
H         1.32727186535804    6.80353391046765   22.12941446790115
H         4.80843595875884    5.17449996755436   19.87359499706134
H         4.73337822961970    5.84581975204593   18.22907963818407
H         6.90438873779272    6.49077725579146   19.15299514018870
H         5.89313592576589    7.93361818892175   19.08078256160191
H         6.15933800789605    7.12134281450637   20.62371589313873

