68
CSD_code = NORMEM | q = 0 | S = 0 | Stoichiometry = C33H29FeO3PS | MND = 8
Fe        2.23012041601875    3.54783900653790    6.14746722916257
S         0.73470325202882    7.54906281621756    7.92045835304787
P         0.59035836792204    2.35111085170385    6.87515596909200
O        -0.42375553986383    6.97965910396909    8.56225398420992
O         1.75162682219547    8.11696238124515    8.76925193705970
O         0.51245022692521    4.48478674147948    4.03615881967205
C         3.75079914086767    1.99034169097587    5.97684638371048
C         3.81878110962031    2.82077403125406    4.84480660552192
C         4.13469487855239    4.13388768077917    5.28500517833770
C         4.30779108321557    4.09300442102618    6.68439470403158
C         4.03340044243923    2.78499157687580    7.12181197762489
C         1.17840359790834    4.12101167027082    4.90525496919424
C         1.85638042378075    4.86812401672324    8.67741974912535
C         1.72531657071279    4.99722872903277    7.36900662162377
C         1.46231604554124    6.33012491187955    6.75841872048231
C         0.86328752130795   10.01549193796030    6.68142911153080
C         0.43148427479672   10.97864529011548    5.78378211663606
C        -0.69301082289725   10.74348500782662    5.00858108928457
C        -1.39277885225539    9.55232773128360    5.12900221807814
C        -0.96447820630783    8.58886354059426    6.02661146288725
C         0.15929168793576    8.83339366526978    6.79300611909949
C        -0.04394385561447   -0.40820313322406    6.60713596652731
C        -0.12029608512592   -1.58738875799424    5.88655932330357
C         0.30212983614766   -1.62926581546269    4.56792359364869
C         0.79878591429210   -0.48475333620351    3.96433695290955
C         0.88198228226953    0.69298278689428    4.68353112275603
C         0.46683749611467    0.74058139317680    6.01087050182691
C        -1.41035977511763    4.23594899966925    7.20484218308522
C        -2.66441240186797    4.79083883016209    7.03035196795549
C        -3.62309689392096    4.12454084207225    6.28409538462201
C        -3.31990579003687    2.89894124881094    5.71564694874092
C        -2.06794290742789    2.33498539098833    5.89271529338579
C        -1.10216367058764    2.99721073908944    6.64450967599838
C         1.63728567936462    0.96190103183695    9.00076666642213
C         1.74714402941623    0.53236952659769   10.30854088976975
C         0.81320860936330    0.93972888981003   11.24921523439506
C        -0.22793044457027    1.77103933897849   10.87308317430413
C        -0.34328214904607    2.20142491958556    9.56183076314727
C         0.58815147742385    1.79466767988950    8.61492591584531
H         3.62225223124888    0.91925785076936    5.96514731182416
H         3.74483487196541    2.50464598688660    3.81771661934173
H         4.35493671483944    4.97191386101032    4.64449764302572
H         4.62804182574870    4.91102612780691    7.30679604548128
H         4.17553323016807    2.41857859119044    8.12386486056903
H         1.75291776998447    5.70153361902329    9.35663209608802
H         2.06298046454329    3.91553650769436    9.13680506110043
H         0.73460963950441    6.27803686789604    5.95400475426442
H         2.37670489259040    6.79126601188405    6.39103428624043
H         1.72894925521610   10.16330151483878    7.30793193095090
H         0.96968234096910   11.90976320043194    5.68935955802022
H        -1.02909285081387   11.49418871576210    4.30867841290904
H        -2.26993598624464    9.37615461052872    4.52475923464221
H        -1.49375952264291    7.65653989366309    6.15102551573651
H        -0.38296128660156   -0.37830875304428    7.63304403117144
H        -0.51363851899174   -2.47732413973225    6.35597115500850
H         0.24237335691163   -2.55247671462227    4.01071884636395
H         1.12251966259281   -0.51360763113851    2.93420138332783
H         1.26961481820237    1.59585832100161    4.23080059743214
H        -0.66858229696689    4.77097817407442    7.77974309443867
H        -2.88079983581708    5.74581359126520    7.48597120460544
H        -4.60217268875691    4.55867391152830    6.14307310936844
H        -4.06144670341090    2.37659127503229    5.12850513830721
H        -1.84542236696056    1.37933632373230    5.44041555171907
H         2.36032354329422    0.64986706619559    8.25912552627592
H         2.56099392698947   -0.11634629352148   10.59916043686438
H         0.89999885078863    0.60975148818503   12.27385219664587
H        -0.95484553718009    2.09041602711478   11.60518403456784
H        -1.15508359271071    2.85356661684501    9.27707548564585

