42
CSD_code = NORNEN | q = 0 | S = 0 | Stoichiometry = C18H19BCl2SZr | MND = 12
Zr        1.16328122235488    2.37229582567713    1.91056690473356
Cl       -1.17111461962503    2.37238752981795    1.85896063369059
Cl        1.38428140594117    2.37240272193596   -0.40962356273226
S         2.43644115107128    2.37231511067580    6.14290073449069
C         2.49760071040400    1.14009528028138    3.49196346695241
C         2.89761894518437    0.69313235629673    2.20019279182854
C         1.83993603065678   -0.05477809211492    1.62506406192282
C         0.76567403281873   -0.05701321519755    2.53591969548428
C         1.15553870819215    0.69522388221699    3.67289215387208
C         3.34326199603701    0.98718396930605    6.88521449928370
C         4.78621681858190    2.37231497671597    4.34723436793389
C         5.51350916671561    1.18072488707454    4.39187101932328
C         6.89380031520169    1.17640270825465    4.48929193401770
C         7.58933039236104    2.37231314891033    4.54479064842573
B         3.19461368259692    2.37231555475318    4.24807793912048
H         3.88902098421573    0.81249247566015    1.77235312745481
H         1.88614761163931   -0.60935916263115    0.69472288986007
H        -0.15880783391967   -0.61299963241252    2.42896126221501
H         0.56126910590697    0.80588538909514    4.57680767622254
H         2.95216952203387    0.07882794530240    6.43863673355216
H         3.16695871066081    0.98046610605906    7.95588652524584
H         4.40195370222768    1.08151838971766    6.66325807539525
H         4.98419944868209    0.23974269826996    4.33190236140368
H         7.42971120283979    0.23842588448622    4.51866044541154
H         8.66683741657675    2.37231246933568    4.62165188701711
C         2.49759632458563    3.60453081543629    3.49195831367544
C         2.89761542635503    4.05149225038946    2.20018801035020
C         1.83992657290102    4.79938599360559    1.62504796389145
H         3.88901998516787    3.93214266566434    1.77235405982433
C         0.76566730576624    4.80162974627349    2.53590815271892
C         3.34326398567956    3.75744461878719    6.88521436498445
H         2.95217482853335    4.66580128152886    6.43863499864025
H         3.16696017527423    3.76416452409818    7.95588625030954
H         4.40195601942293    3.66310820345422    6.66325955862602
C         5.51351067075984    3.56390416726942    4.39187219574599
C         6.89380185837542    3.56822440007720    4.48929328254305
H         7.42971336602085    4.50620083833893    4.51866270477447
H         4.98420210545788    4.50488700868935    4.33190492881141
C         1.15553527930849    4.04940130583247    3.67288566129761
H        -0.15880908316708    5.35762720381647    2.42895655740061
H         0.56127066236968    3.93875198685258    4.57680422882277
H         1.88614468783444    5.35397378239876    0.69471049545809

