28
CSD_code = NORRET | q = 0 | S = 0 | Stoichiometry = C12H12AuClN2 | MND = 2
Au        0.33743436605657    0.55041932699642    6.60290909283995
Cl       -1.89003802997594    0.69913009915211    6.40173416487311
N         3.10189708095208    1.15131036951329    7.61033010155926
N         3.14870027699537   -0.30956480625440    6.00860449772899
C         2.32701500062490    0.44542048636170    6.76515293636272
C         4.42994963931330    0.85886116240496    7.39856965842858
C         5.59506128899833    1.31059334171824    7.99994936422256
H         5.57302013687095    2.03515669694330    8.79808594995872
C         6.78630972496133    0.79123885554498    7.53115716525810
H         7.71537204242707    1.11795975409563    7.97179170994124
C         6.81877753423245   -0.14840979739692    6.50142303849143
H         7.77227721065637   -0.52843427414252    6.16875129457663
C         5.66254887122050   -0.60392850743465    5.89767785391185
H         5.69933611035186   -1.33414601135640    5.10473412290353
C         4.46125504296197   -0.08538077585428    6.35873319625383
C         2.72833049674773   -1.15911630820991    4.92688799943909
H         1.66666616257206   -1.37689245517023    5.06863136865568
H         3.29995870678200   -2.09108538487689    4.96462522648473
C         2.93485231776126   -0.46883316855537    3.56865485858023
H         3.99049848769116   -0.21364187832099    3.43514775668762
H         2.63925262011871   -1.15636462080736    2.77264316976898
C         2.13595558769060    0.73757678935328    3.48215405350708
C         1.46497821549019    1.72769770658935    3.46372113425938
H         0.86964737986494    2.59002228173829    3.41730858516815
C         2.63085394196942    2.08018844548645    8.59734915319752
H         1.54221295393146    2.09545596283693    8.56937137183210
H         3.01091343789516    3.08131584434322    8.38558023868204
H         2.96456339483808    1.77595086530043    9.59102093642661

