43
CSD_code = NORSAO | q = 1 | S = 0 | Stoichiometry = C13H24FeN2OPSi(1+) | MND = 8
Fe       -0.04619543368726    3.26076663253882   13.81211832679484
P        -1.08046578425022    3.91322066385828   15.52045937150420
Si       -1.54412985355737    1.64261765152284   13.27515054039184
O        -1.37074980175077    4.75086864483762   11.72980609624237
N        -0.86560293668526    3.63346115994242   17.12779397030371
N        -2.14938801780650    5.12731412435147   15.80741151947918
C        -0.93552006558012    4.17342686398337   12.61770712058035
C        -0.01180973610107    2.62231546659581   17.69822795849761
C        -1.52102444171931    4.56033007135777   18.03908151257474
C        -2.54518053391470    5.32086384110889   17.19653379672056
C        -2.86862234530503    5.87906690988311   14.80923508160213
C         1.74180080018442    2.20228226328081   14.56240673276961
C         1.98468187157179    3.60709691000140   14.57147940454335
C         1.87109363104493    4.07748050706521   13.25468905512630
C         1.54900147273526    2.96608464388145   12.42610369998141
C         1.53182553118942    1.80139441125321   13.23204897147806
C        -1.25056956320648    0.28842108217175   14.59683111019864
C        -3.35164709565478    2.24882113786093   13.49735774019195
C        -1.33213126345198    1.01210587556901   11.48940997021992
H         1.91164402161060    1.53733620843577   15.39228150664140
H         2.30062685077635    4.18209066730306   15.42611427647972
H         2.07904375916782    5.07645656121332   12.91314177704832
H         1.50656741761982    2.98347322495444   11.34964740185857
H         1.45306761541711    0.78935392763593   12.87938356523792
H        -0.57115675808646    2.01644078582121   18.41440827859216
H         0.35391220790879    1.97840132269757   16.90168905476612
H         0.83808065498411    3.07063048109905   18.21830085916066
H        -2.75336523790301    6.94936062129313   14.99070996325919
H        -2.46899856371048    5.64248315892418   13.82725018702570
H        -3.93390988037282    5.63767278749110   14.82972190253597
H        -1.90616460886645   -0.55427707960159   14.40697055088495
H        -0.23471766039064   -0.08747244087247   14.59636549366264
H        -1.47295834055482    0.65639029150917   15.59411562078837
H        -3.53227466032102    2.61988594547658   14.50342982958816
H        -3.59926237477793    3.04159552018212   12.79999050060198
H        -4.04661494745561    1.43543084364510   13.31828814122485
H        -2.13773340130582    0.32903479575222   11.24194976638493
H        -1.36647508571490    1.82883865614278   10.77645533678646
H        -0.39894514614917    0.48202806997088   11.34109909900453
H        -1.99787196065574    4.00619735034665   18.85140373865121
H        -0.77840922541243    5.23628609215356   18.47788317337458
H        -2.54939053393211    6.38760267847255   17.43270107726028
H        -3.55976057592897    4.93512066888977   17.34944691997924

