43
CSD_code = NORTAP | q = 0 | S = 0 | Stoichiometry = C16H20N2O4W | MND = 10
W        10.21029191768032    0.00426937908609    1.20129999083820
N         9.81191888021170   -1.63619390297130    2.72270004471779
N         8.80444445928073   -3.31580806377125    3.95854363482799
C        12.00325757322302   -0.37277430031743    1.85128995220141
C         8.99490092249353    1.10644900973429    2.87117832878034
C        10.35566205348298    1.49935737482301    2.85726855447334
C        10.77620756308065    2.17958574728489    1.66424489241033
C         9.78965639108848    3.00076587815875    0.96458014523967
C         8.04029269178006    1.66951032876481    1.95890971248362
C        12.18343019424531    2.71887214528239    1.56523719571267
C         8.75084763556588   -2.26307260559460    3.11100228551672
C         7.39952608691166   -1.83748458531172    2.63566083326341
C         7.61333695406486   -4.01748230253775    4.38175617890418
C        10.06228930274077   -3.69586748717836    4.57105185947297
C        10.79788800599141   -0.08704886196715   -1.01284285605286
C         9.68810567457263    0.80250533009427   -0.97510256363438
C         8.55121408335901    0.07949572521534   -0.56483100019869
C         8.94158020684053   -1.24684707489498   -0.31461376551096
C        10.33799397199676   -1.37347209714984   -0.59943917536114
O        13.05540732665558   -0.67726631405662    2.21815916461752
O         6.86930594924149    1.34393855827366    1.89445475988076
O         8.46362066051596    2.68922339053855    1.13183008001451
O        10.05713575664980    3.93063246732020    0.24101849057635
H        10.66976112941038   -2.02136190986539    3.10616784088017
H         8.57271825623508    0.62578622021829    3.74988535947377
H        10.97213766390639    1.47208890885599    3.75589102520952
H        12.88058865831023    2.08387053558756    2.10566831260926
H        12.22808381307306    3.72790932815397    1.97739473789757
H        12.48884783340657    2.78124131514514    0.52307853164688
H         6.73292992709474   -1.67123368675858    3.47934981889223
H         6.95559806648840   -2.60211267739135    1.99985743592284
H         7.46363942888701   -0.91165525110622    2.07267013928925
H         7.07223688988415   -3.46276038093888    5.15443680191011
H         7.89299112883684   -4.98762480761286    4.78617099731083
H         6.94254295028193   -4.18738076350957    3.54161396964861
H        10.53144796574160   -2.84141935151991    5.06607000190131
H        10.75645551674683   -4.10226269600311    3.82999274308160
H         9.87940950013623   -4.45905096014813    5.32194226825100
H        11.76135433268389    0.12686680653733   -1.45608546344360
H         9.68980415248944    1.81606827519213   -1.35136714923896
H         7.54364582808007    0.46329498315467   -0.51495273323993
H         8.27608560041069   -2.07523132471116   -0.11328681085416
H        10.87270709622328   -2.30792030210587   -0.72925457032065

