40
CSD_code = NORTAQ | q = 0 | S = 0 | Stoichiometry = C14H18N4OS2Zn | MND = 4
Zn        7.95837484318520    2.81257608473762    3.42274430178460
S        10.86071255385617    5.35032210324917    0.84217461262244
S         5.21860575266681    6.12798193671081    4.66907985768248
O         8.68398599950621    1.27864552973636    4.03989487535000
N         6.86592269813757    2.02247927909924    1.90557383406895
N         6.95484050005237    6.18529713110153    0.50440005210640
N         9.28152002941976    3.84021791611214    2.52130255939874
N         6.92649729274759    3.97594665111358    4.44970041733833
C         8.24363961117723    0.01360760801272    2.04902803811970
C         8.89237860243500    0.25232700941773    3.30347503065812
C         9.80188066501188   -0.74060751967798    3.76087147137919
H        10.28241175365957   -0.55638707604038    4.70988058294852
C        10.07169981389560   -1.86630586045751    3.03686123794841
H        10.77705170518913   -2.59401687323705    3.41219703283326
C         9.43977346501647   -2.09064102227788    1.80587298487031
H         9.65764768399454   -2.98387846751731    1.24069424545392
C         8.54567776817085   -1.17036822890351    1.33799179344282
H         8.04690955922402   -1.33722562673863    0.39196840163724
C         7.26379594591139    0.86562677234310    1.48584596248657
H         6.77478815705320    0.45917004438375    0.58963614539627
C         5.72857690315294    2.60024468327254    1.22288124944749
H         4.81949024791120    2.25727171066000    1.73227826612049
H         5.68293446805104    2.24593252395100    0.18130481686011
C         5.71815814584357    4.12997982539883    1.25302649389898
H         4.76400676341699    4.47428758191158    0.84538300338555
H         5.78430583011034    4.43755577142432    2.29316694025705
C         6.87573709164906    4.70114328395599    0.44627321384175
H         7.81561128032191    4.29907785909579    0.82620795447096
H         6.76813394910360    4.41234815773823   -0.60260183099545
C         7.32669916693197    6.69229482033823    1.83876347922489
H         8.26264884013239    6.23516824442206    2.15192159426959
H         6.56149879393799    6.46277594123810    2.58046589781181
H         7.45346051411887    7.77174176652131    1.79759967885499
C         7.90801115876708    6.68548108371751   -0.50129624050528
H         7.93000492197603    7.77298715980851   -0.49197020223966
H         7.63055977010898    6.34495840977791   -1.49656533075800
H         8.90782110846934    6.31030914803120   -0.25759309259763
C        10.01329054218609    4.45368756910700    1.83646162867590
C         6.19937465311887    4.88778862222169    4.59572137769358
H         6.01986145050265    6.54959844619759    0.28847766477729

