67
CSD_code = NORYUO | q = 0 | S = 0 | Stoichiometry = C24H37FeO4P | MND = 8
Fe        7.72046701513644   -1.49447106925677    3.04377594744644
P         7.08285706270520   -1.57740482690917    0.98979297812332
O         9.92625092622876   -0.03342539713318    1.95115036984555
O         8.81370887406112    1.11996568846220    4.34511459155092
O         8.27555496644232    2.36850793669008    2.54938823317965
O         7.75508372441426    3.14166293212903    4.61706719862208
C         7.42684994849162   -2.15033783762183    5.12044754700847
C         6.82343334630265   -3.09252588656415    4.24329608587942
C         7.85140297939011   -3.63892102180799    3.41286512345903
C         9.07731997943786   -3.01309833603456    3.75636584206410
C         8.81501535900932   -2.09922054649060    4.82392100888919
C         6.75611968565189   -1.41720942002124    6.23686001407495
C         5.45133575952311   -3.67518525618208    4.38646625029969
C         7.69183042741317   -4.84832902173252    2.54755626333082
C        10.43824993134636   -3.38076473043812    3.25296955078598
C         9.86211959951790   -1.44046875689749    5.65856522832510
C         8.97573582307469   -0.46820177429249    2.43648166703521
C         6.38103268426668   -0.08949452523124    3.33550324067886
C         5.07317515001474   -0.56965450391990    3.22679041655518
C         3.94923681455826    0.18836678431749    3.49275353245407
C         4.09823820224864    1.51178894206268    3.86319410575068
C         5.37294668300119    2.02816245182174    3.97062617136799
C         6.50237787761912    1.24208077645821    3.73689984420092
C         7.84162798853866    1.96164883630416    3.82475695905177
C        10.11778939003625    1.69672263885537    4.35167745926433
C         7.46759681703092    3.31623200651272    1.88754496653544
C         7.57179113942531    2.91202783605983    5.99688742812995
C         6.83103162818817    0.04443972044342    0.17264837280868
C         5.58312862236616   -2.44514632458885    0.34121124442353
C         8.34405687479736   -2.31001449669358   -0.13476111933809
H         5.69767523924638   -1.27911120836667    6.03073616259069
H         7.20652552530798   -0.43553820686260    6.36021240069728
H         6.85988164682063   -1.96956530105951    7.17292295466891
H         5.49344482301969   -4.56923145381064    5.01318279752902
H         5.03945866418623   -3.96590084595031    3.42151101583318
H         4.77156779168412   -2.96785907947869    4.85421071286228
H         7.71356331048598   -5.74444944504145    3.17146050280130
H         8.49700533259140   -4.92766410188333    1.82167186532492
H         6.74291915447711   -4.83927447174724    2.01625459492941
H        10.91299654575813   -4.09662743525507    3.92679931940472
H        11.07370320399506   -2.50083569462221    3.18991191101360
H        10.38171408972238   -3.82806058381927    2.26368978434741
H         9.46469489575506   -0.54945899075715    6.13230918278437
H        10.72108749963145   -1.16542097013604    5.05340647555181
H        10.19735725129437   -2.12952680541440    6.43773654600852
H         4.92594448904087   -1.59237738871470    2.91450295944297
H         2.96248075960187   -0.24570845516694    3.39603839517495
H         3.23875070306859    2.13762397294005    4.05520771043592
H         5.50096753056262    3.06788229275833    4.23652416994940
H        10.05756532022481    2.77661189072401    4.49521095873870
H        10.62571197957712    1.49344596389176    3.40814054698376
H        10.66119075677979    1.24000205775053    5.17642535096869
H         7.96378043875913    3.50409603647612    0.93719375556845
H         6.46018388109876    2.92629185018938    1.71072628073342
H         7.40242160065398    4.24346819932412    2.46158219027947
H         8.46855099302798    2.48367489986842    6.45469507975412
H         7.37064549694906    3.88884819505090    6.43370185274301
H         6.72652739455235    2.24149785430081    6.17868255751710
H         6.70268063289736   -0.07173666631540   -0.90382663977128
H         5.94836041991510    0.51545824697094    0.60121357696798
H         7.69099420857352    0.67537791379465    0.38421988787535
H         5.55688886073334   -3.47141559239788    0.70006220710781
H         4.68933104512310   -1.92797494580437    0.68177973861892
H         5.60211309936797   -2.44979866834369   -0.74815349791247
H         8.45308239319738   -3.36927014240008    0.08569650812727
H         8.06229532244742   -2.18707484340093   -1.18002178161431
H         9.29567241963188   -1.81663089559470    0.04756544415936

