57
CSD_code = NOSFOQ | q = 0 | S = 0 | Stoichiometry = C24H30Cl2Ti | MND = 12
Ti       -0.00003743088179    1.21858505187694    4.45251571967447
Cl       -1.52391424181265    2.79310664890617    4.05777884177873
C         0.68116262370959    0.19915617063584    6.49737610879713
C        -0.15808175376128   -0.68350165794786    5.77658665690637
C        -1.43810773269068   -0.07139133168702    5.67325231162092
H        -2.33897998089192   -0.53089019923751    5.28436874394589
C        -1.40440648071496    1.13379739010474    6.41479465214107
H        -2.25447977298037    1.77001962030092    6.62760756801926
C        -0.10336086291461    1.30610467651084    6.91915173366663
C         0.39702746294188    2.34951572676626    7.86852118503054
H         0.72529034487643    3.23807677052669    7.31794188456300
H        -0.40932203373679    2.65499822406584    8.54146297667008
C         1.57936746416531    1.78252596040476    8.65889864978980
H         2.03029201668001    2.57283067750477    9.26070617607367
H         1.22423442832704    1.00084749826658    9.33577019869144
C         2.61902547502725    1.19667506916319    7.70532758479769
H         3.52650553750406    0.93508209475018    8.25304413222046
H         2.87504486413639    1.94793454048703    6.95608913959163
C         2.07353442466044   -0.04903976923384    7.00199012991820
H         2.74863040397978   -0.33690576447917    6.18929638440956
H         2.03930416669657   -0.88504592159739    7.71241648854019
C         0.22749016222728   -2.00881542089836    5.18673685626147
H         1.32027875763341   -2.10086156147964    5.21773926413639
C        -0.35527624741044   -3.23428920868005    5.89384837262784
H        -0.06159314534583   -3.23884877498052    6.94538540586865
H        -1.44603159038965   -3.20381175154840    5.85055210637107
C         0.16464785707680   -4.49336258465985    5.19920484194164
H         1.24840923095415   -4.54779656127593    5.32742676151805
H        -0.26920744554413   -5.37936987852448    5.66671917484618
Cl        1.52338191468691    2.79344695067499    4.84746053258238
C        -0.68114715096591    0.19915003305209    2.40760991271124
C         0.15806399057970   -0.68349144267200    3.12845754323453
C        -0.22752335964467   -2.00880411144486    3.71829401187184
C         1.43808612514606   -0.07137633969674    3.23185242511218
C         1.40441655894194    1.13380726653707    2.49030823213428
H         2.33894680568836   -0.53087403304826    3.62077756430766
H         2.25449726734239    1.77004117038064    2.27754813847922
C         0.10339021157850    1.30611232628740    1.98589356983319
C        -2.07348442253066   -0.04907105157459    1.90291044319613
C        -2.61895121981584    1.19662444293295    1.19951445145049
C        -1.57921641139063    1.78250934137672    0.24603622127587
C        -0.39696501680197    2.34953247070656    1.03651841633654
H        -0.72531053622335    3.23806449353526    1.58709473093990
H         0.40942298890596    2.65506886726923    0.36364886998771
H        -2.03010885799029    2.57280730991635   -0.35580146858454
H        -1.22399417396647    1.00085169971129   -0.43081231674632
H        -3.52638409833795    0.93500384972107    0.65171700231294
H        -2.87505471339876    1.94788418864339    1.94873578519101
H        -2.74862929506364   -0.33692836641012    2.71556512321610
H        -2.03919287046737   -0.88509149133549    1.19250596270708
H        -1.32031342814356   -2.10083138028416    3.68729242337523
C         0.35522907599680   -3.23427255006149    3.01116272555286
H         0.06155171721822   -3.23880904484223    1.95962511996192
H         1.44598391153926   -3.20380654706902    3.05446534132638
C        -0.16470846718634   -4.49334989197508    3.70578694487570
H        -1.24847044400707   -4.54776976093051    3.57756457710785
H         0.26913739678898   -5.37935413344105    3.23825766583228

