60
CSD_code = NOSGEH | q = 0 | S = 0 | Stoichiometry = C25H32Cl2Ti | MND = 12
Ti        2.00426252957451    0.02504176968751   -0.05910024446094
Cl       -0.01470268192567    0.98056911063699    0.07514108372413
Cl        1.03288887693526   -1.97095505448418   -0.14064516319969
C         3.17729040573267   -0.97945688045922    1.74447304262134
C         3.55633631610784   -2.41420022325198    1.97119358049609
H         4.64254499358513   -2.50708442821256    2.06086735344951
H         3.22497287117871   -3.04541529237063    1.13920634653904
C         2.86969305556467   -2.89578615344868    3.25347087637190
H         3.08499918436962   -3.95419737078734    3.40919215502853
H         3.26290349288076   -2.33809252397050    4.10736499405877
C         1.36027696151381   -2.68251316724194    3.15222777154331
H         0.85777060417355   -3.15543539414196    3.99789246557677
H         1.00051373912722   -3.15471737453309    2.23695435645124
C         1.01102268916681   -1.18996492191043    3.12594420484962
H         1.02386756324018   -0.78711534202337    4.14604642739015
H        -0.00119438002849   -1.04783998647990    2.73173449427686
C         2.00080304282674   -0.41668238114189    2.30870685990037
C         2.05124514878183    0.98041207586695    2.12076541221758
H         1.34423305883054    1.69701476902989    2.51787185728217
C         3.23208773701094    1.28589895371959    1.41606438523888
H         3.60409489584074    2.28600304833594    1.23691296673316
C         3.94467258629569    0.07289080654215    1.19271291040004
C         5.29693474378288   -0.02312799401880    0.53413367935110
H         5.49834057339202   -1.07059325276458    0.28820170139750
C         6.38387315838062    0.49648081308472    1.48863485640733
H         6.08486865631086    0.27510863854130    2.51630162182381
H         6.43251366975132    1.58362808506582    1.40240353263067
C         7.77275607755461   -0.10473687783669    1.25704256786804
H         8.50454872643323    0.55496191583055    1.72837449833469
H         7.83691565264573   -1.06944627866057    1.76560074769087
C         8.16238065584038   -0.31985714385581   -0.20860884990467
H         7.73419288573126   -1.25748232564577   -0.56899175009186
H         9.24780560580975   -0.43649366747521   -0.24571195817290
C         7.74366782578480    0.80371067748141   -1.15992061364114
H         8.45534536614868    0.84161534252609   -1.98792477255515
H         7.79048637017398    1.76583463083163   -0.64813735584153
C         6.35275123266205    0.58799662119366   -1.75672895493675
H         6.30554352124102   -0.41957411868550   -2.17084827696464
H         6.20734538546040    1.28392911326401   -2.58708437580366
C         5.20863485094790    0.81056909625530   -0.76151749838630
H         5.24400603824685    1.86984159945098   -0.47317534651663
C         3.85828115452668    0.56007812386581   -1.38650375306313
C         2.86907810202421    1.56253440405590   -1.55978891127872
H         3.00517047484651    2.62062134015940   -1.37174945249621
C         1.76496096975249    0.99305864024814   -2.22989879502454
H         0.90315983127076    1.52891837638490   -2.60592544350642
C         2.03145902102549   -0.37538918137593   -2.42205967065767
C         1.24209916474231   -1.33216420160612   -3.26558358898291
H         1.21981537284475   -0.93091013716818   -4.28653216267578
H         0.20644500266049   -1.39022869753889   -2.91541098002472
C         1.87013048870041   -2.72976233628107   -3.27666420840941
H         1.49930278240134   -3.28396880776495   -4.14085862888836
H         1.57110961291484   -3.26736065468494   -2.37566799830696
C         3.39405306601636   -2.65078171885666   -3.32004656507050
H         3.81276878970377   -3.65160701479818   -3.44113007465400
H         3.70851446106147   -2.04345140957626   -4.17276614625294
C         3.92576939861151   -2.02357517324000   -2.02714680274508
H         3.64243595850703   -2.66652612806934   -1.18467193526924
H         5.01543794135658   -1.96968018471008   -2.05715459630851
C         3.31381471993740   -0.65864415299979   -1.86998187556192

