54
CSD_code = NOSGAD | q = 0 | S = 0 | Stoichiometry = C23H28Cl2Ti | MND = 12
Ti        9.40767615250097    0.09904909167351    4.95075466540425
Cl        9.81172100239156    2.11724912458968    4.07779566020097
Cl        7.36674040444991    0.76609701046070    5.51179143938676
C         8.07762636524570   -1.49111000394121    3.74966371783112
C         9.29008090604133   -2.08307253096819    4.17911630129874
C        10.35432037688835   -1.41989827289660    3.50281641593065
H        11.39151643340162   -1.72627984756573    3.48568449607955
C         9.79413378404979   -0.44537615702728    2.65201493871038
H        10.33546105553377    0.16284481157296    1.93917653590739
C         8.39374550908653   -0.47541878576434    2.81200893561090
C         7.34218933549805    0.28357125855661    2.06552530936743
H         7.71417223115782    0.57327067944973    1.07923305274139
H         7.08387718753386    1.20179054526565    2.60767550349313
C         6.09900505346136   -0.60247346227317    1.94442007821201
H         5.29547678752541   -0.04616016685602    1.45930313062354
H         6.33470453796130   -1.47141727792993    1.32443021720409
C         5.64371916418449   -1.06546949892633    3.32709436628010
H         4.69314817633266   -1.59678411907583    3.24832975459428
H         5.49058137614945   -0.18936950288436    3.95838390489651
C         6.67920998891586   -1.98494832792422    3.98540717325683
H         6.46219417210040   -2.07210783284041    5.05489771778066
H         6.60503200069356   -2.99005699397482    3.55109286053344
C         9.44113800319282   -3.10396224496061    5.26338262507085
H         8.54669330116668   -3.06992395006916    5.90023229778965
C         9.73387865322579   -4.57122330797900    4.94153679942086
H        10.46435800254290   -4.63609654742324    4.13388760505057
H         8.84347992812044   -5.11889670723084    4.63778666647007
C        10.32564242376048   -5.11036915648314    6.26383600082878
H         9.59790443542929   -5.73012733398123    6.78640775635914
H        11.20018949802802   -5.72917278405485    6.06645305696769
C        10.70380803655979   -3.88226800876806    7.12494138667204
H         9.97333039866623   -3.73241588574336    7.91864201758767
H        11.68356905088515   -3.99194154578334    7.58714394177413
C        10.66511798501396   -2.73178334120311    6.11799155447383
H        11.56056809399101   -2.83841786863794    5.49231037671972
C         9.52861057412943   -0.62563913080741    7.21739939409740
C        10.55898593607248   -1.29001858256827    6.50922973063823
C        11.43612491685065   -0.29326697773984    6.00109504291292
H        12.38156194398986   -0.48004828772513    5.50673596415697
C        11.00449219715941    0.96489017307790    6.47061573247995
H        11.53508739817430    1.90217291385878    6.36316230244431
C         9.82124588776219    0.76808123284927    7.21094169834455
C         9.11117281346258    1.78599388004301    8.05301318939894
H         8.79338770591908    2.63565218751109    7.43915446484579
H         9.82843178503560    2.16630058199176    8.79080555983850
C         7.90347185188720    1.17893229128646    8.77562923769982
H         7.63453236501613    1.81344349149486    9.62205629748028
H         7.05200819513317    1.14521704823839    8.09471720182867
C         8.20300352697934   -0.23802424775303    9.25881746069943
H         7.37436885446459   -0.60383342396345    9.86788812169773
H         9.10504143448239   -0.23432474358342    9.87617499571426
C         8.41225293542932   -1.17240529931447    8.06244118314490
H         7.47970643215606   -1.21869100823209    7.48654524154660
H         8.64850343420992   -2.17936315706692    8.41240892050171

