81
CSD_code = NOSNEQ | q = 0 | S = 0 | Stoichiometry = C34H43CuN2O | MND = 2
C         8.67182420354037    3.80614909100138    1.84645032776157
C         9.38156766576856    5.02572186499996    1.88387027840170
H         9.07524580238997    5.77848286760347    2.60584665098936
C        10.44756695724793    5.33567988135706    1.06087250078491
H        10.94169458312522    6.29413684306775    1.15170586023803
C        10.87396678964241    4.41562151090310    0.11936368033939
H        11.70232741879135    4.63892341111495   -0.53927020367171
C        10.22711790441672    3.20234658414722    0.03624542797505
H        10.53008208220407    2.45389571404948   -0.68178356638592
C         9.15772874570248    2.90429110906421    0.88027635836804
C         7.68832180368128    1.07556925970425    1.47386135929876
H         8.01895863924545    1.05613268320499    2.51832287406699
H         7.54587579898591    0.05151482586406    1.12513178523604
H         6.72928686367009    1.60356575582955    1.42036502321247
C         5.57206998136351    3.81023898721959    4.20876858085964
C         3.60314596926657    3.48646763167049    5.22817320379774
H         2.70678411664071    2.96129162524973    5.48602097061879
C         4.06638595484441    4.70101113153398    5.60815845874404
H         3.65179550445099    5.43971480036949    6.26238775146573
C         6.09510006253878    6.03187953660240    5.09300406117040
C         5.95818390321951    7.06370107855227    4.16255826280913
C         6.78072788189907    8.17396913962948    4.29688855341334
H         6.70229612564782    8.98434864770469    3.58930588089146
C         7.70845447794234    8.24966434109204    5.31753319724159
H         8.34354756825751    9.11862155268694    5.40364401376354
C         7.83791341614244    7.21115167998949    6.21947280196176
H         8.58012099776986    7.27469202123601    6.99959465170902
C         7.03419094820016    6.08362232229417    6.12497730908266
C         8.55901479704974    4.24523525801633    6.79048097726756
H         8.60468452926977    3.93176116602407    5.74899910552339
H         8.68089285051189    3.36962973069155    7.42410399693781
H         9.38598359064573    4.92535001581777    6.97709646452858
C         7.13319396229311    5.37883470434205    8.53873999477297
H         7.95157112606283    6.04640292256334    8.79338193996405
H         7.18429828383031    4.51447960719576    9.19722744116267
H         6.19529122064834    5.89902179386463    8.72386074052211
C         7.21966915998970    4.92789322062127    7.07977905989875
H         6.42697304885953    4.19128040291402    6.91432695747977
C         3.98306534737184    8.14352291953678    3.05902752981055
H         3.46506824756554    8.17476744162924    4.01593940385745
H         3.24356960859328    8.02821096731890    2.26974340355518
H         4.49033608470331    9.09328539279095    2.91323111420942
C         5.72629188597965    6.93837170402947    1.68735531600023
H         6.28656520367712    7.85581032456142    1.52883125065656
H         5.02498883698463    6.81646664623681    0.86505252985613
H         6.42586066099208    6.10452983105154    1.67248430270082
C         4.97456796068857    6.97856774438595    3.01981682333505
H         4.40103336928865    6.05007005645037    3.10481493202360
C         4.44903386405052    1.69839768752215    3.72087851738754
C         4.99334523187444    0.57502970199419    4.34653062202979
C         4.96320548763026   -0.63037625760012    3.65955694256917
H         5.39129749067593   -1.51272816970250    4.10774626350378
C         4.39972980045875   -0.71271184937482    2.40062330897811
H         4.39216796656600   -1.65655764814460    1.87653306779406
C         3.84628785805596    0.40598148285897    1.80855074207441
H         3.41100866614336    0.32584056578228    0.82510037461341
C         3.85668803469610    1.63283641829861    2.45822094624165
C         5.16724852891548   -0.44561250347976    6.64412786204831
H         4.08061982946340   -0.49660473950194    6.67030892687055
H         5.52854240432072   -0.25913174968259    7.65308580924664
H         5.55052087972643   -1.41032046583422    6.32399296157358
C         7.15591807341915    0.66568581797488    5.56610136595511
H         7.48811651055272   -0.25289937034033    5.08846692524965
H         7.62884883434598    0.74103941019686    6.54260837650360
H         7.48159611158975    1.50746067869143    4.95686238144800
C         5.63230113615839    0.67457951591539    5.71217644551514
H         5.34314459158621    1.62498159560569    6.17315664104864
C         1.83912222983981    2.60122087631373    1.31704062312979
H         1.82108161296348    1.88436802861500    0.50101459327074
H         1.39706133449682    3.52904480394320    0.96080889633563
H         1.22513258657763    2.21522573187348    2.12851759707245
C         4.16301500182373    3.30877359575121    0.64039977593397
H         5.15936688837042    3.55767188051760    1.00321240315417
H         3.74156434197693    4.19011087963869    0.16233256955642
H         4.25564236251014    2.52192066906091   -0.10396064980172
C         3.26882026831537    2.85824374219156    1.79809417958262
H         3.22737586579208    3.67407570014848    2.52735136751974
O         8.65119995703608    1.63454009397903    0.63238017360083
Cu        7.12625878530118    3.66974768995000    3.05869032554156
N         4.53546726331889    2.95846080470937    4.37413489072533
N         5.26736825983767    4.88080763435541    4.97521543552263

