72
CSD_code = NOSPUI | q = 0 | S = 0 | Stoichiometry = C32H31N2O4PPdS | MND = 4
C        10.21315738067328   11.31158514873904   18.77699759620619
C         9.69767604016893   10.02301731527146   18.74572070198846
C        10.03944705268206    9.14553566873590   19.77242399561327
H         9.65395169160562    8.13626350839548   19.75992837586985
C        10.85557921958539    9.56703330343364   20.80709136793356
H        11.11131608088886    8.87911638125183   21.60070398732166
C        11.34780171709031   10.86360379655582   20.83358319577114
H        11.98158664585915   11.18799686020774   21.64550420766295
C        11.03109954516735   11.73550910668740   19.80588498234168
H        11.40110896067497   12.74885041887897   19.78323089074231
C         6.97588485839923   10.05106179735425   17.64390719250073
C         6.39443345891113    9.91262994076918   18.90916209015102
C         5.08864929877909   10.34048273116451   19.11349515401852
H         4.62219031248265   10.25054772362953   20.08251562046568
C         4.37408186629192   10.89489519224668   18.06358752758509
H         3.36066616182735   11.22669387390144   18.23637792175826
C         4.94581606046752   11.03148907846663   16.81082111240491
H         4.38002659185328   11.47083687500328   16.00352408322597
C         6.24916106124354   10.61465431422381   16.60567349773191
H         6.73932713920060   10.73921968016221   15.64074118912577
C         6.71961316993078    9.23904172327266   21.17239536109163
H         5.84240515562123    8.58681167390651   21.24208265695444
H         6.47595207538739   10.22323546196859   21.58429990125466
H         7.53762852022307    8.80387810721910   21.74461020093682
C         8.62105291623861    7.72632163238484   17.48288009815954
C         9.84227105768828    7.12520277698298   17.14346608114348
C         9.96582840584407    5.74452737707682   17.14910958655732
H        10.89656993102156    5.26167705216738   16.89511849389905
C         8.86001668303061    4.96985115917923   17.47072682873004
H         8.95516486716201    3.89405513321866   17.47508359502089
C         7.64409602787536    5.55601941253546   17.77080050468154
H         6.79004543253733    4.93854825137091   18.00477170289414
C         7.52120472947546    6.93742309783310   17.76589993243288
H         6.57186107556089    7.40185079605136   17.98637383269597
C        12.13786854488021    7.53901606025217   16.70826774417308
H        12.77490601948071    8.41910722596148   16.63103812643511
H        12.25299995128808    6.92393243991956   15.81003647106158
H        12.42397274321264    6.95701347809076   17.59016767545569
C        12.14349363093677   11.52698997065525   16.15764617108000
C        13.02790147112757   12.36125678406035   16.85100348324922
H        12.62410903684565   13.14445422700775   17.47238954298948
C        14.39105623217138   12.19264102145619   16.71415557182843
H        15.06194378577634   12.84655883856413   17.25401614922662
C        14.91059395104062   11.20381938831752   15.89280433077295
H        15.97904996870049   11.08485091140865   15.78944072287486
C        14.04356474472114   10.36664395087841   15.20680836773788
H        14.43896239436651    9.58605438593424   14.56975961004997
C        12.67926228245881   10.51757765078745   15.34082801191483
H        11.97749601367768    9.84915436992481   14.83293991291316
C        10.64419934676133   10.98572030384467   12.64379447283751
H        10.99786734939055    9.96439267658345   12.56159917931681
C        11.09051409913940   11.96211237285955   11.76864970144513
H        11.81361979162549   11.71595291466194   11.00693892038496
C        10.59878093965843   13.25087262778287   11.89843951690439
H        10.93407850359749   14.03853224564506   11.24045748487330
C         9.66279706756489   13.50405656209280   12.89031011407418
H         9.24842493338271   14.49079290550566   13.02388649000262
C         9.26973091656632   12.47023151244532   13.72369353767301
H         8.54480144915221   12.63939015497160   14.52046307616506
C         8.24627340128908    8.86894643181770   14.35713884374593
H         7.52078237855988    8.31697152035183   14.96201588340696
H         8.94953483413560    8.13538220271081   13.94158112389649
H         7.70464579518423    9.32888565664808   13.52096922760262
N        10.78640684434142   11.64048387106843   16.19892424750408
N         9.76346266635604   11.23692503320424   13.60669907294507
O        10.40322566612642   13.69348060469297   17.68174207998928
O         8.56256622958617   12.24774881750057   16.96687491812722
O         7.18859655261183    9.33454118567907   19.85074541075707
O        10.81613310669107    8.02134734676520   16.83052285634806
P         8.68494932409106    9.53191288218330   17.31367724152672
S         9.96144110111440   12.36133292508566   17.34410771473394
Pd        9.38311574092205   10.26505017243116   15.33787352709822

