56
CSD_code = NOSSIZ | q = 0 | S = 0 | Stoichiometry = C27H21AgN2O3S2 | MND = 5
Ag        3.21997237929437   11.40093008912531   10.46750178455505
C         2.01817947378235    8.47935783247521    8.89043248268128
C         2.10763591415707    9.47729115218140    7.93512211018526
H         2.22514953873854   10.51057202567216    8.24797127959415
C         2.03437330108558    9.14930557090143    6.59319491129032
H         2.11186286224501    9.92699911385185    5.84928355737074
C         1.86905685795289    7.82806000342825    6.21164372390900
H         1.81956178995880    7.57141141582827    5.16421412186573
C         1.75806218576882    6.83592326015820    7.17230043822521
H         1.61458457865596    5.80735806445560    6.87589645587285
C         1.82484994097291    7.15848982829121    8.51590107018492
H         1.72609061551839    6.39246767856755    9.27060676321072
C         3.75016137216809    8.04352905946841   10.99982290611774
H         3.97554322916057    8.35013929727810   12.01942371935997
H         3.55335175597654    6.97302401746294   10.96031278862360
C         4.83117659682198    8.43793596050363   10.05611051459172
C         5.15556361310041    7.64548642621464    8.98675708646253
H         4.62843737968348    6.71498002085114    8.83057933720399
C         6.16522161837558    8.01349336130404    8.07905775604357
H         6.37609452423972    7.36457145235399    7.24251323155680
C         6.86548546154491    9.16806104541730    8.25567767400555
H         7.64283474380317    9.46007475328718    7.56561965651962
C         6.57776306231698   10.02165000549778    9.34701550556795
C         5.52643277289794    9.66943515702183   10.25005649113964
C         7.25961389245434   11.21377148158188    9.57222095622442
H         8.04322592245284   11.52279468960522    8.89535363368887
C         6.92413938218495   12.01668521311705   10.65845335881972
C         5.86772452954733   11.57588935769704   11.51611303742494
C         7.56766872672635   13.24717516108716   10.93415235537844
H         8.34106206500315   13.58480756171413   10.26055446380708
C         7.20773466933704   13.98696714406351   12.01962813013947
H         7.68966455308973   14.93055395191052   12.22609824368158
C         6.20857429794063   13.52776334252627   12.89754037824206
H         5.96362979544653   14.12246647937918   13.76622540198833
C         5.54827319322288   12.34829849937477   12.67439024251945
C         4.49469383377475   11.86906292189983   13.61026291054627
H         4.60953352688475   12.30572251877813   14.60137277958786
H         4.48071692571992   10.78260658044448   13.67274194017115
C         3.00199032799569   14.08508234423365   12.95283343156204
C         3.01999423431399   14.73416018091966   11.73066146288084
H         2.87024006635187   14.17257844681138   10.81662645611889
C         3.21184302965298   16.10449642518337   11.69060032923849
H         3.22932667937956   16.60997674671151   10.73746186920138
C         3.38210331745156   16.81740270835396   12.86550544404749
H         3.53676936039519   17.88541955974356   12.83161406140372
C         3.34389178745216   16.16337203577319   14.08668147033430
H         3.46271343030705   16.71979019420596   15.00473492704460
C         3.14694314674148   14.79515867226468   14.13523408225422
H         3.10379198650860   14.27952413414170   15.08323449626993
N         5.17788011613065   10.44840922483722   11.28464322185880
N         3.77813802422292   12.99187563335266    8.19152887707226
O         4.60227724222939   12.15008129041489    8.59622317314803
O         2.69250803087670   13.06343118182940    8.80267324647453
O         4.01530726429859   13.70578754775386    7.25355380904343
S         2.15127805384363    8.89357189032367   10.62357898604683
S         2.79680301984353   12.31017028836584   13.02748745764076

