64
CSD_code = NOSVIC | q = 0 | S = 0 | Stoichiometry = C19H42FeP2 | MND = 6
Fe        5.28725933509217    3.23478813181355    5.94542789482858
P         3.18575571109875    3.79454279771039    6.24550281464088
P         4.72222708276332    1.58502504900895    4.62845779223242
C         2.07929720636573    2.32039376442048    6.52729594148307
H         2.42736860331478    1.85037438919605    7.44808006862372
H         1.06029887773639    2.67717944509098    6.69782246825267
C         2.08040552523282    1.25967136995072    5.42976008848493
H         1.28029324397256    0.54325718562598    5.65072158287923
H         1.85242963994457    1.71231885158404    4.46327708417876
C         3.40316188591301    0.50214818529967    5.33936500558541
H         3.27796112984946   -0.41108747180595    4.75498796089880
H         3.72975284428088    0.22648228123124    6.34342565772026
C         6.01258855097078    3.34352866464320    7.81900111330539
H         7.10175463269975    3.36439516482155    7.80832561918544
H         5.59521342975536    4.07425916586039    8.49538351572416
C         5.36902500650659    2.11052016890494    7.64187616072976
H         4.45552699656454    1.91644220194522    8.18854166366847
H         5.98469125092467    1.22014303775273    7.55454698024927
C         5.87873095673830    4.52657837770031    4.46512696314277
H         6.71479938473279    4.14062812591398    3.88838561300472
H         5.09770931777227    4.94827070982008    3.84928548518492
C         6.15666075842251    5.06637229639659    5.71830351096343
H         5.57439264223532    5.89553556437240    6.09042785060894
H         7.18494671425773    5.07935216246891    6.06548716772907
C         2.26842682006031    4.59006332594945    4.79175931714380
H         2.68855868162552    4.05415509902586    3.93096489248609
C         2.62367348123758    6.06667831261595    4.63041108842541
H         2.36769110537729    6.40472205983535    3.62612352216867
H         3.68511669765533    6.23119379464753    4.78531093202961
H         2.06352615836184    6.67474758098075    5.33716728744399
C         0.74759753480747    4.44397211923363    4.75980502949722
H         0.29055947882849    4.85142216395699    5.65916119278860
H         0.43151022496195    3.41140469513573    4.64686319653140
H         0.35685363510879    5.00395172705484    3.91011751634699
C         2.54513280006706    4.85403820119574    7.67932007866116
H         1.54176084439830    5.19608345563665    7.39522312218766
C         2.43914174375355    4.08216913624412    8.99315843783754
H         1.66353680123091    3.32216511989031    8.96267513758117
H         2.19315105976183    4.77242375726036    9.80004264354529
H         3.38734363583707    3.61030161458103    9.23422517542182
C         3.43450535569860    6.07335941096333    7.90587672538511
H         4.43444436473250    5.75589560732979    8.18526197916172
H         3.02979982257537    6.68568997725003    8.71203209679150
H         3.51096160267172    6.69230785464327    7.01913945467145
C         4.14414486528316    1.63484201128372    2.82977507765737
H         3.30499024720111    2.34188242578884    2.82792546305217
C         3.65235309432274    0.30436001845587    2.26194625171600
H         3.52030249215687    0.39867108490038    1.18442205882941
H         2.69451710656711    0.01463444356265    2.68615295167081
H         4.36924109741754   -0.49483880018285    2.44027064847784
C         5.22710149309672    2.22402873121401    1.92986455503927
H         6.07249363526681    1.54652988488736    1.83057448044322
H         5.58050907600247    3.16814461511681    2.32990063320370
H         4.82680478549338    2.40466411015329    0.93257122365667
C         6.20717094710947    0.43463226355490    4.47393374437985
H         6.26864097488593    0.06503263776690    3.44368749676507
C         7.42711929878109    1.31780040408483    4.74829892631954
H         7.58872316770083    2.00887869086720    3.92361107792988
H         8.32942164451544    0.71956946387033    4.87364432064710
H         7.27045426395290    1.90906974603720    5.66007378640011
C         6.18721085410858   -0.77857029361436    5.39730778061865
H         6.10556607067591   -0.48294787943185    6.43920969309403
H         7.11297488170378   -1.34245832918042    5.27903424772933
H         5.35901742786126   -1.44218986233859    5.16124075301204

