68
CSD_code = NOSWEZ | q = 0 | S = 0 | Stoichiometry = C21H44FeP2 | MND = 6
Fe        9.87152015092471    5.51793922605610    7.46275895469909
H         9.84884970670448    4.31710835434081    6.69745608332775
P        11.97377380407571    5.47877789525141    6.99690821057150
P         9.11464768841083    6.40327578651654    5.65920897519417
C        12.61079267414353    6.09378486266687    5.35860922952853
H        13.60200788848336    6.53214170647196    5.50235064037908
H        12.72028870485416    5.24021741636322    4.68788096976948
C        11.68329147643532    7.11332835483342    4.70872463301837
H        11.49758568128387    7.93010817475653    5.40687218483515
H        12.18378225959401    7.53538263580346    3.82973704393514
C        10.35597847140180    6.48974546768901    4.28402729618949
H        10.52611433156361    5.45844380355615    3.96532331777572
H         9.92844566035666    7.03829246881531    3.44140172573170
C        13.11164372161813    6.41105072238507    8.17422016066989
H        12.74603661023316    6.13765827927796    9.17152522102078
C        12.87641772297558    7.90762890568549    7.98097135324608
H        13.37628555649624    8.26412956346368    7.08295379490608
H        13.26602357226968    8.47252643256467    8.82749415445592
H        11.81264828033095    8.11818070588165    7.88605277594492
C        14.60247353330471    6.09532100658400    8.11073624428069
H        14.81134398173807    5.07883794826892    8.43291598469141
H        15.14326745210560    6.77327700267024    8.77140970908248
H        14.99738064698634    6.22694605212848    7.10540791857045
C        12.76609935835826    3.78359324792245    6.96697530393150
H        13.83405710084944    3.90002191740032    6.74517576123895
C        12.56986756425672    3.12593983668258    8.32608134109795
H        12.99203570616791    3.72502909609364    9.13003001577872
H        13.03871698118836    2.14285295352801    8.35048577986384
H        11.50275511231836    3.00939215116755    8.49775936960247
C        12.11911968501989    2.90368131793737    5.90429129978950
H        11.03702248467653    2.96654794998511    6.01308144850469
H        12.42721266299543    1.86788553335457    6.03500568320900
H        12.38472107917664    3.20711576920830    4.89462591249127
C         7.78032114606709    5.52082484105278    4.66897990105969
H         7.87205752739839    5.85823032842905    3.62749742916796
C         8.05679390950128    4.02332676752557    4.70970260895255
H         9.05202969273605    3.80046529395438    4.33421801315089
H         7.32842471953769    3.48168260561485    4.10752485686703
H         8.00959570517011    3.67039674211324    5.73577036322969
C         6.35895464709820    5.79737597800226    5.15173919131059
H         6.28260946200654    5.64376075037525    6.22373852794029
H         5.66708343936816    5.11296220192634    4.66132732388328
H         6.04033499000323    6.81075526495830    4.91964359304395
C         8.39280386344384    8.14987249714965    5.67197980458868
H         7.42352030239811    8.00508646252783    6.16511097708948
C         9.19725588006878    9.10532008338295    6.54675056458278
H         9.42214618997591    8.64981876334294    7.50774820395802
H         8.62831773795520   10.01710434811948    6.72857509834880
H        10.13222403756282    9.38852206871222    6.06853329357966
C         8.14941441718439    8.78489302988593    4.30648378106306
H         9.08892016707532    9.08175330307700    3.84556898787163
H         7.54116260243969    9.68180374518404    4.42506462170961
H         7.62640851598030    8.11158985142804    3.63265323851781
C         9.85355658448256    6.61546466968123    9.42618573898269
C        10.09341374999419    5.14799520100086    9.43596080691278
H        10.86751242428177    4.72340975661001   10.05841343386983
C         9.03940377869385    4.38725839506509    8.92487337895341
H         9.07867576362655    3.30658300008510    8.90906386318555
C         8.02906446895244    5.12245207648678    8.26244789210087
H         7.27630813131000    4.52053628530518    7.76283880447942
C         7.44125236324621    6.35042745270665    8.93376060880639
H         6.52166695836107    6.07752684615365    9.46357824104825
H         7.16458971534536    7.08069360333900    8.16912211560637
C         8.44605953419212    6.97030753124793    9.90127861456430
H         8.30673699876876    6.56963808284889   10.90868084219606
H         8.31819776760759    8.05469110022406    9.95306604267745
H        10.61645100594398    7.17616701721026    9.96747344946580
H         9.91612449125710    6.94084151032562    8.32148728982911

