54
CSD_code = NOTCAA | q = 0 | S = 0 | Stoichiometry = C21H30Cl2Zr | MND = 12
Zr        0.49111223627640    1.71003514628065    3.74660160302656
Cl       -0.79977839065520   -0.14781257655715    3.17908519119896
Cl       -1.32560877245247    3.17077408122187    3.82209245786349
C         3.57210031218284    2.10856418872770    4.23931000679462
C         2.71450583391144    2.44344703951742    3.02426124365632
C         2.20843488120073    1.48537676261486    2.09789717524287
C         1.15487855610920    2.09542801382663    1.35529801694746
C         1.00033971280449    3.40820204330920    1.85479272095594
C         1.92429342575387    3.60882039963982    2.90019885789010
C         0.42839735875454    1.54987278956548    0.14314239416572
C         0.66300514857925    0.04331306227388   -0.00974710129151
C         0.95469491096236    2.27015501281667   -1.10892249458900
C        -1.07637554894228    1.82162378840806    0.29696646049403
C         2.49446579990319    1.52224457793942    5.14424399447971
C         1.50752645177650    2.28610679575517    5.83312817130727
C         0.46329143342675    1.40398280709738    6.23935018516620
C         0.80042953753898    0.11550220223843    5.76722804643110
C         2.01966574900243    0.19324097613565    5.06423910756236
C        -0.71060538006701    1.70166282049711    7.14934052193621
C        -0.91468461492612    3.21157683884564    7.31220769310826
C        -1.97967883726305    1.07428858893472    6.55134726778178
C        -0.43097632752313    1.08058703877483    8.52758853518629
C         4.67320474174336    1.09498810396398    3.91050115389530
C         4.22938539823290    3.35074124454426    4.84992482729629
H         2.65145917347431    0.52145227363485    1.87515458932711
H         0.34588058937764    4.17123077895716    1.45562671604704
H         2.07364956984861    4.55005410682450    3.41318471888485
H         1.60668774313035    3.31989714421065    6.14375311518145
H         0.26593757863098   -0.80152103056922    5.97518836551738
H         2.54793553013868   -0.65970182390800    4.65826050345950
H         0.35152187712475   -0.48911320374596    0.88845188000610
H         0.08463005946956   -0.33587832983694   -0.84932444975860
H         1.71276516548637   -0.16625409956276   -0.20519430813111
H         0.78635919920094    3.34153253664051   -1.03516341675327
H         2.02302929168403    2.09959773128855   -1.22208125393136
H         0.44785482400124    1.89993094405736   -1.99708444524802
H        -1.62261045196118    1.38659610025178   -0.53754243472764
H        -1.28096223212851    2.89051030344152    0.31285000919328
H        -1.45433894144168    1.38252727827398    1.22362565198934
H        -0.06078456318668    3.66523050282937    7.81137924658580
H        -1.05954033242453    3.68836799416610    6.34323229338052
H        -1.79638490631891    3.40003980537304    7.92074947063851
H        -2.84485530587638    1.32588151793645    7.16146378127713
H        -2.15195663223982    1.44546848152762    5.53795503089155
H        -1.89879781095017   -0.01040508275074    6.51266068165789
H         0.47712557781921    1.50087856737501    8.95411570295182
H        -1.25776607932218    1.28021499935255    9.20532501080261
H        -0.30258937202122    0.00430991113666    8.44524398462467
H         4.27641450743224    0.19897900029348    3.44245857387077
H         5.19236896710591    0.80346837694394    4.82079802005781
H         5.39273316265725    1.54364727103707    3.22915146830068
H         3.49761366024842    4.09987895823283    5.13745111056713
H         4.91303217071417    3.79887600963910    4.13230713962742
H         4.79286436400066    3.06878123057867    5.73662720720024

