66
CSD_code = NOTCOQ | q = 0 | S = 0 | Stoichiometry = C23H35Cl2N5Pd | MND = 4
Pd        6.12543858293894   -2.05141485083013    1.73314884444765
Cl        3.91509921630314   -2.35785349674541    1.85802627282694
Cl        6.21451318924547   -2.65454375213397   -0.41710381239286
N         6.08022746314615   -1.37381329583179    3.62858622094153
N         5.92407666998664   -0.07266246311502    3.89790254463377
N         8.09252922865727   -1.63472016329952    1.63828513595655
N         8.52977236680130   -0.40908142126853    1.32733539649022
N         7.01911984981227    1.32860442595535    2.19714979197804
C         6.02971867755211   -2.04794387140002    4.76137132909722
C         5.83072134096218   -1.14168997496905    5.81431639835281
H         5.73776551643918   -1.37231760643448    6.85560966538140
C         5.74996924442677    0.10627781045793    5.23280003278667
C         6.15158165512997   -3.52903509937509    4.75878277815244
H         5.99764049702671   -3.88881276384399    3.73035138056433
H         5.39798094803641   -3.97133925720732    5.40605869602045
H         7.13537618376016   -3.84167956756224    5.10887531791824
C         5.47707959721434    1.41811920005706    5.87461516280014
H         6.30793543375678    2.11210627063738    5.75058200344157
H         5.31597085212193    1.26540995824289    6.93803438824882
H         4.58232438637084    1.87515288552669    5.45245786219934
C         5.79642059989831    0.88214473674454    2.80065341584010
H         5.17076908887012    0.39409595420111    2.02701483056535
H         5.26257997294555    1.74670224582314    3.20512031111305
C         9.12779242426968   -2.45034434160665    1.69418497460631
C        10.29067836509584   -1.71969902057320    1.40514079050255
H        11.29328299604858   -2.09259528217081    1.36208225375739
C         9.87725323586379   -0.42729794277554    1.15864688047757
C         8.93170041682084   -3.89171249933997    1.99831661156805
H         9.24325938582931   -4.12328890405318    3.01683825378286
H         9.51132530193978   -4.50466617143393    1.31206962367276
H         7.86419808226201   -4.13041646753390    1.87845687610464
C        10.68586769606822    0.74616459334722    0.73865720126901
H        10.33452401990025    1.13430594274539   -0.21719427361894
H        11.72200742845517    0.44003715246635    0.62531147065055
H        10.64501120722930    1.55127885018435    1.47173586304681
C         7.56664198365617    0.65427787542627    1.05529825266351
H         8.08324119311495    1.38361799425238    0.42505315953336
H         6.73974936479653    0.19291182596267    0.47956723885833
C         7.94008674570503    2.08010087625534    3.03318853316122
H         8.95757696883184    1.71881209848866    2.86107472152671
H         7.71625537222350    1.87926807379426    4.08436804262782
C         7.91760257240691    3.61007114412687    2.80972682737723
C         6.53475980487226    4.19767419250106    3.10596072751192
H         5.80360462227672    3.77167227418772    2.41710359366590
H         6.23554310619254    3.95330792467164    4.12782608754968
C         6.55915460950877    5.71741320413798    2.93579274531713
H         5.56412460489958    6.11861972760184    3.15779892075887
C         6.93887746533073    6.06255226376651    1.49761824585512
H         6.94758314724280    7.14612334732870    1.36427024331154
H         6.20253666826855    5.64572790769444    0.80717599402085
C         8.32118386793085    5.48899043550964    1.19447743946140
H         8.59676692706303    5.72545871105465    0.16080593416607
C         8.29231046760867    3.96984913653490    1.36909701655625
H         7.55629851922034    3.54445318156017    0.68505630238326
H         9.27471390458102    3.55937351407419    1.12446803843046
C         7.57949429521886    6.32787388506167    3.89445621019496
H         7.30527116063215    6.10082913490852    4.92740569683312
H         7.59083723706065    7.41387722249450    3.78318480005034
C         8.96286759605720    5.75901699583990    3.58555274654914
H         9.69850144850406    6.19069230367897    4.27331724380696
C         9.34774772544192    6.09856666409896    2.14703475351230
H        10.34324888676637    5.70678825246078    1.92517275250272
H         9.37876635634560    7.18202488864630    2.01640710867513
C         8.94045970658182    4.24172614214881    3.76197820910678
H         8.68491427082824    3.99582734990063    4.79599599193833
H         9.93456827963450    3.83382963894979    3.56114592893083

