31
CSD_code = NOTDIJ | q = 0 | S = 0 | Stoichiometry = C14H10I2N2O2Pd | MND = 4
Pd        0.55785710105033    4.91141572959030    0.00005304544162
I         2.38334502763729    5.37588941893664    1.78967036228775
O         1.95333749736797    2.69751843254836   -1.10003587868222
N         0.97596904372263    2.00808737772578    0.71161868732805
C         1.16899287301255    3.05830483858472   -0.10222198934932
C         1.66680752370226    0.91498691166788    0.22164486884144
C         2.28614205306485    1.38279206584349   -0.94323022331411
C         3.07917340147053    0.56937068455965   -1.72945800336094
C         3.22878248091855   -0.73841164631110   -1.30054553040808
C         2.61475290939264   -1.20722532389541   -0.14131273627001
C         1.82027603009111   -0.39244780355500    0.64564435299544
H         0.42967501375648    2.03532174451486    1.56219548317264
H         3.54981853421827    0.94025276403275   -2.62440570717808
H         3.83821275633890   -1.41375652522550   -1.88018647677937
H         2.76298104453455   -2.23502599581874    0.15106779935857
H         1.34584013838883   -0.75512762688520    1.54311741441175
I        -1.26750843740555    4.44681886871657   -1.78967523965016
C        -0.05317283199861    6.76457886222390    0.10235284448046
O        -0.83750729961085    7.12539245748038    1.10016696022906
C        -1.17040593060790    8.44008318105762    0.94327360288854
C        -0.55112027479005    8.90785175729122   -0.22164350444315
N         0.13978233588628    7.81476329073583   -0.71155294873323
H         0.68605399245456    7.78750020321911   -1.56214543138038
C        -0.70465473125198   10.21526056088000   -0.64570542553539
C        -1.49915904272303   11.03004182902008    0.14121975405542
C        -2.11316115393760   10.56125544161432    1.30047895457224
C        -1.96347005464480    9.25350718461859    1.72946515169224
H        -2.43408425606758    8.88264790078465    2.62443924868364
H        -2.72261033161389   11.23660301852320    1.88009706514444
H        -1.64743277514419   12.05782362062948   -0.15120554204598
H        -0.23021263721310   10.57792677689149   -1.54318095845252

