96
CSD_code = NOTGUA | q = 0 | S = 0 | Stoichiometry = C45H46ClNP2Pt | MND = 4
Pt        3.47127794249591    3.25383949833603    1.14796533329698
Cl        5.00358678243501    2.93027713278068    2.84959737327109
P         2.02226226409554    3.30451426198593   -0.60648564694335
P         1.68788695759387    2.30366336217194    2.32479679751628
N         4.22249123621306    7.40297431696977    1.81508354563079
C         4.97763794000538    4.23725997137333    0.21072982561882
C         5.90741302347710    3.65468760176394   -0.64370446232210
H         5.82549433963935    2.60657626463301   -0.90711317319049
C         6.95168882131702    4.39704475896959   -1.17333239476472
H         7.66270423717368    3.92190852665484   -1.83521313129119
C         7.09138343909167    5.74116930899785   -0.85864030611315
H         7.91077863421244    6.31085720008388   -1.27287118055249
C         6.18421289223422    6.34221899064574   -0.01196925625118
H         6.26775273702725    7.38473370158037    0.25575194583773
C         5.12876258300875    5.59987601739600    0.52196173840339
C         4.15847410668129    6.20877356190652    1.40877466540115
H         3.33889667739462    5.52849280996897    1.73838334241609
C         3.27011984192500    7.95805855667821    2.65052995914722
C         3.69513547401578    8.36913924528846    3.92519955413968
C         2.78279393701818    8.96510724417112    4.77684837081512
H         3.08744191101203    9.27014484382813    5.76620403738919
C         1.47477715673275    9.17613547093959    4.37451918108699
H         0.77134732826220    9.64484742794760    5.04798196007836
C         1.07172229002161    8.79044766415846    3.11142640850614
H         0.04950470780379    8.96389474498357    2.80756866453726
C         1.95047942619897    8.17589148028795    2.23039379997150
C         5.11897290263785    8.07071064191854    4.32991692722085
H         5.71825029208454    8.07436573524385    3.41204649083630
C         5.70160823711832    9.10233202048178    5.29381498115113
H         5.24834656077051    9.02234319740829    6.27940499489300
H         5.54505672355738   10.11091203352271    4.91734109861968
H         6.77115841422400    8.93738975014572    5.40514565827001
C         5.19985107162727    6.66598141489244    4.93701483454061
H         4.56726337427872    6.59487236718000    5.82079450251927
H         6.22367223181607    6.43971905758745    5.22701049790888
H         4.87972319988776    5.91551934110575    4.21827476946865
C         1.48160131650962    7.78375137159452    0.84689902694432
H         2.33858887605194    7.42819634976702    0.26510423115169
C         0.88937863074299    8.98160174061464    0.10044645854946
H        -0.03677465485040    9.31506348648332    0.56166808965797
H         0.67947329412936    8.70704856392101   -0.93206650977028
H         1.59302812477312    9.81073031263687    0.10219549568300
C         0.46185115900263    6.64610539656241    0.92688442144680
H         0.94038406627191    5.73392995963154    1.28439114572124
H         0.03945922446393    6.45379877603196   -0.05759240027980
H        -0.34523265539845    6.89563068512776    1.61209395141964
C         1.69483588034321    4.68120134784174   -1.74910985702939
C         2.79467495788836    5.44387088827371   -2.13291982896127
H         3.77279122182236    5.18476543255733   -1.75240985918901
C         2.63541651676815    6.52512653605118   -2.97896764632258
H         3.49353085369526    7.11622173606020   -3.26103216300015
C         1.37580608123206    6.85229917618532   -3.45426450901417
H         1.24657008367959    7.70073743325801   -4.10966939371184
C         0.27951411902699    6.09024903079258   -3.08594548968948
H        -0.70329918450886    6.34153214217621   -3.45832644599462
C         0.43276555333687    5.00986024021700   -2.23437126778765
H        -0.43475046642081    4.43107256702064   -1.95323668522857
C         2.47715990812026    1.93701942719379   -1.71625741466130
C         1.98121776202681    1.81927248348994   -3.00939547911682
H         1.31793327445618    2.57696520312504   -3.40377669512208
C         2.35217310976083    0.73969456126073   -3.79068619035169
H         1.97244016373365    0.65016433353137   -4.79794544239567
C         3.21173652637959   -0.22353920562284   -3.28671795242737
H         3.49993570816386   -1.06209353389620   -3.90312825611036
C         3.70827368585279   -0.10861573708309   -1.99790471710774
H         4.38293055059217   -0.85666373356469   -1.60871891368662
C         3.34458392470382    0.97125922907783   -1.21552493455163
H         3.73913097974214    1.09089520536789   -0.20670463021902
C         0.33263918669922    2.77009544903125   -0.04544332233066
H        -0.17855047057861    3.66108286647372    0.33362555426137
H        -0.22843935694639    2.36764892840815   -0.89564149887792
C         0.45768352589616    1.72853635194611    1.06044167530438
H         0.85901260660129    0.79275593931740    0.65262136219566
H        -0.51012674411372    1.50224671683834    1.51705801121026
C         1.67258714979372    0.91392291526604    3.49519549758327
C         2.77501547579063    0.06762679881378    3.51093922588904
H         3.61697519915561    0.28508022562644    2.86715661660395
C         2.79909629401309   -1.01879952745316    4.36656160679876
H         3.65713608025517   -1.67437065944825    4.38311736337284
C         1.72579574153677   -1.25788491429383    5.20865877880272
H         1.74396264314476   -2.10412572711834    5.87966969457630
C         0.63104707541064   -0.40706717097931    5.20280213750136
H        -0.19926707846812   -0.59093079642966    5.86927726752064
C         0.60099405455723    0.68042291272597    4.35008053777733
H        -0.24409248876293    1.35513746502108    4.35505570697969
C         0.85809898963981    3.63600639073663    3.24160829187045
C        -0.50287549452368    3.91863703882090    3.22246096788093
H        -1.18959539373121    3.29969924767234    2.66145135412641
C        -0.98838793192008    5.00909739837726    3.92356687798343
H        -2.04723602419823    5.22608801316510    3.90501482266030
C        -0.12603118717468    5.82438040430049    4.63751267860338
H        -0.50988350839811    6.68195553788639    5.16910299871942
C         1.23066621876863    5.54489970033256    4.66491798379828
H         1.90454210633112    6.18628761328930    5.21129657234073
C         1.71970366945357    4.45481176499175    3.97204683759245
H         2.77847135675226    4.22332818182250    3.98488254513340

