61
CSD_code = NOTNUH | q = 0 | S = 0 | Stoichiometry = C32H22N4NiO2 | MND = 4
Ni       -0.00003237153056   -0.00008800503059    0.00006749424930
O         1.06038092500283   -0.85679960099989   -1.29282812172635
C         3.18625354662577   -0.19587210247279   -0.45347838669345
C         2.31390204832245   -0.74980072999246   -1.45191018411019
C         5.12153633612090   -0.52396992207893   -1.93488352818486
C         4.24154498536326   -1.10471519884939   -2.89249552570579
H         4.66395859235859   -1.45158965869805   -3.82553188797035
C         2.91321123990508   -1.22576379872886   -2.66363510745225
H         2.24525882987814   -1.65845464319161   -3.39373520551846
N         1.52981786310880    0.11972494279695    1.12594584980437
C         5.46470199464745    0.48595121395152    0.24226923586629
H         5.05528394480868    0.81865991938922    1.18333350686034
C         7.32779316410189    0.16499329673761   -1.24295205497954
H         8.38462455231554    0.26422609744528   -1.44187082454153
C         6.49606123825531   -0.39145506759858   -2.18291671828802
H         6.89050429346436   -0.73546001606838   -3.12855658151198
C         2.10939502178878    1.30617158481670    3.17574981650728
H         2.81857533661500    1.90005599462102    2.61896968699667
C         0.25704225754351   -0.22530043417829    4.56425885748136
H        -0.45879999614906   -0.82509237799227    5.10707784387771
C         1.91550452095402    1.50929458820958    4.52858058523359
H         2.48843430590712    2.26651970074125    5.04342499341948
N         2.74853768185540    0.12657152819264    0.75741608299855
C         1.36009455912069    0.34133062990522    2.50670188540890
C         0.44233010236198   -0.43538512704174    3.21244834334797
H        -0.10993296552704   -1.20553537839065    2.68673571987199
C         4.59630685870604   -0.07497273791100   -0.70366072098221
C         6.80758801841243    0.60183035351652   -0.02306224467301
H         7.46871191543859    1.03352236028325    0.71407115620159
C         0.98789104781704    0.75070239155823    5.22423678147068
H         0.83491693256883    0.91828055247619    6.28003284735283
O        -1.06039659404149    0.85678293615309    1.29287402975085
C        -3.18627699342541    0.19595397650110    0.45349438188356
C        -2.31389779418443    0.74970961063214    1.45199808154150
C        -5.12152656893184    0.52408451888214    1.93484338746812
C        -4.24156696503370    1.10500612464421    2.89240128638496
H        -4.66389388240001    1.45141848124141    3.82564637709376
C        -2.91321812921404    1.22597937005230    2.66360118176646
H        -2.24525542488576    1.65854295869519    3.39376716605662
N        -1.52980180075660   -0.11976216600457   -1.12591135065537
C        -5.46467591130058   -0.48613860414436   -0.24220949960000
H        -5.05532811681232   -0.81857090302667   -1.18341396961197
C        -7.32777901046417   -0.16492824657512    1.24291942763475
H        -8.38461596951502   -0.26407664160867    1.44181865785174
C        -6.49605245564886    0.39158321757095    2.18284991011529
H        -6.89045941982625    0.73555653629594    3.12851559491614
C        -2.10929199899156   -1.30632893518673   -3.17570305351025
H        -2.81856553149444   -1.90011427667467   -2.61893837113326
C        -0.25708944194181    0.22525131818628   -4.56428164658084
H         0.45877937618353    0.82500098559193   -5.10710424456901
C        -1.91544360040413   -1.50943891033140   -4.52854273486711
H        -2.48843842317900   -2.26660993112804   -5.04339918134156
N        -2.74856044700572   -0.12644909094782   -0.75741319091327
C        -1.36007247457379   -0.34139665763223   -2.50669096459490
C        -0.44241512395305    0.43539786280734   -3.21248673445634
H         0.10988946906956    1.20550883475430   -2.68678111900021
C        -4.59630594247919    0.07494146958232    0.70367231594569
C        -6.80757294301812   -0.60195073908917    0.02309258921346
H        -7.46876207354048   -1.03334138087250   -0.71416109312241
C        -0.98787173975354   -0.75081743193404   -5.22422643338660
H        -0.83493084864074   -0.91837464185333   -6.28003439489142

