67
CSD_code = NOTNAN | q = 1 | S = 0 | Stoichiometry = C22H38IrN5P(1+) | MND = 6
C         7.80547789148304    8.11566908442220    4.84231843493217
C         7.11374456489162    6.40506592234005    6.10066593510649
H         7.20629293697805    5.55986304702838    6.75030769514637
C         6.01679342348655    6.99738201346970    5.57487883987486
H         4.97934701904420    6.76384013195612    5.69085649196631
C         5.59377587147847    8.93421171694669    4.07197755793150
H         6.22136471622680    9.74664342681212    3.68866541346575
H         4.84874646999629    9.35339859605389    4.75502565430958
C         4.88446309087474    8.23107724688082    2.91334439514947
H         5.62483733078475    7.74742880115044    2.27354916483429
H         4.22482359101099    7.45353335690160    3.30228914799650
C         4.06772811652674    9.21912485114449    2.08342394797778
H         4.72486867508150   10.00735843195714    1.70956522532887
H         3.31393076016586    9.68925220548870    2.71779119883057
C         3.38422385956418    8.52942219138146    0.90983936871150
H         4.11942192910576    8.07224666826250    0.25160725575399
H         2.80745957853981    9.24668436739366    0.33289430445459
H         2.70946973643827    7.75307443860029    1.26169137160449
C         9.56118813829649    6.79361559704855    5.98925559397713
H         9.85427589543848    5.83179949062374    5.56545496827460
H         9.67314644501088    6.74161077626806    7.07281094838265
H        10.20967256593180    7.57478267531086    5.59230546468904
C         8.72942029232102   12.74568782827367    5.74996725939214
H         9.66038374007690   13.08875753024637    5.28473453972015
H         7.89035921180947   13.09136298881026    5.13513101941594
C         7.20967265556292   10.73565321257164    6.92446933404905
H         6.31455083837275   11.00488491602576    6.35271159523837
H         7.10261465548596    9.69731398730386    7.26037006447592
C         9.97683927269495   10.69930088998234    7.17817902474831
H         9.98509091499114    9.66039518305772    7.52611892087763
H        10.97057196235971   10.93513071666805    6.78189874655622
C         7.36918366744895   12.99785831044765    7.71612204002924
H         6.53530810241709   13.24329121909136    7.05354045934267
H         7.28625466731996   13.59450181100989    8.62809865643382
C         8.42903358680453   11.26107719049179    8.92697580116236
H         8.39396800947516   10.19724921878637    9.17679259639447
H         8.35333666928067   11.84502499365863    9.84776220593211
C         9.72809117367736   12.96976528512231    7.92523971802787
H         9.66439446246652   13.56756731339956    8.83802309599086
H        10.67123498478152   13.19293842563906    7.41991943702178
C         9.64378708112123   11.12922279050262    2.60000081045719
H         9.15173545562426   12.03447235409793    2.95057250776701
C        10.72289952019611   10.66660426301431    3.32566738008250
H        11.05357890201564   11.25830298119205    4.17948783464388
C        11.78913648743123    9.73590666268140    2.80807852335236
H        12.48292051949602   10.29895119338934    2.17663628823596
H        12.36279939608685    9.37075245560279    3.66278911752374
C        11.23036049724598    8.53212904628848    2.02701008919950
H        11.93211156842194    7.70293871997426    2.12315765322285
H        11.15656145129945    8.76807470387990    0.96579138293102
C         9.87530052728092    8.08725576335168    2.52698941224586
H         9.86812440598823    7.09900241883463    2.98047669441756
C         8.66855674993746    8.54400602075206    2.00665814297798
H         7.82272099501205    7.86094294176547    2.05495697869704
C         8.52384184427667    9.58655123316137    0.92749922952666
H         8.74407998943923    9.13000003247279   -0.04219494176563
H         7.47845889348886    9.90118224739120    0.90018292578594
C         9.41714234817062   10.82263027931930    1.13848489197064
H         8.93791748007836   11.68184295779644    0.66770451837065
H        10.38075326704400   10.68514892695376    0.64890371063022
N         6.45663674204995    8.04286303323964    4.80895392126784
N         8.19973532842709    7.10335491543354    5.64425046786515
N         8.62011772163879   13.33904495736711    7.06068283154053
N         7.29247184499743   11.59256076216615    8.08359186696213
N         9.70400745870529   11.56454977619185    8.29896903021950
P         8.71061672496643   10.87088553010100    5.80614982330471
Ir        8.97996532581373    9.51097697505332    3.91837601507291

