30
CSD_code = NOTSUK | q = 1 | S = 0 | Stoichiometry = C8H15Cl3N3Pt(1+) | MND = 6
Pt        0.68569276064057    3.83238097899982    0.58322167961016
Cl       -1.03360880436496    4.63746917480370   -0.84802637309263
Cl        1.98497144521461    3.16991463037979   -1.21243927031057
Cl        2.27715269085386    2.91922436096289    2.12218504850416
N         1.61601350356251    5.64295900558384    0.54483440621432
N        -0.12869740437701    1.92569191812074    0.51923042955599
N        -0.51999366151562    4.34192209677044    2.33355854578508
C         2.21565330669521    6.13706857841508    1.63095900721822
C         2.97039219079225    7.29528832185835    1.59199847403994
C         3.11238306150766    7.96804303204750    0.38691789604472
C         2.48078651670394    7.45216025839784   -0.73336428935194
C         1.74337915687365    6.28585311249786   -0.61716661249292
C        -1.54284330463034    1.74188733782450    0.86556050459357
C        -1.84776986945157    2.24799041514236    2.27323437554748
C        -1.87302524303309    3.77093650929632    2.36952416237050
H         2.11654942393991    5.57958660879869    2.55329709101168
H         3.44366714836835    7.65389980952064    2.49179178231553
H         3.70420284900774    8.86779550771270    0.32394648509528
H         2.55982954731013    7.93608857147614   -1.69338453836659
H         1.24463990366696    5.86397391770218   -1.47909463839489
H         0.46126474460811    1.35690545180876    1.13842306419976
H         0.03938369936333    1.60334719037253   -0.44071049909342
H        -1.79564502374900    0.67809916817468    0.80502546763716
H        -2.15038635262263    2.28243141532132    0.13553621355757
H        -2.83001145924351    1.87478716465899    2.56204230331537
H        -1.11887959836043    1.84305281808069    2.97959437185925
H        -2.43948578099088    4.18851498012397    1.53371107829731
H        -2.36692606616116    4.06125865487664    3.30317018445014
H         0.02975508049893    3.97994171665080    3.11844634028110
H        -0.58644446110863    5.35602729362011    2.42017730959919

