69
CSD_code = NOVJAJ | q = 0 | S = 0 | Stoichiometry = C28H32N8Ti | MND = 6
Ti       -1.55631388353428    0.18866199020411    3.95700109664934
N        -0.29448669991897    1.32663776308433    3.20446282154941
N        -0.29892176426732   -1.46511581602219    3.67006906595567
N         0.18802601377609   -1.36359336102101    4.87232380050847
N        -0.33170267049009   -0.32277534077473    5.46428814786372
C         0.19955774925427    2.47498377294002    3.92345127044343
C         0.59129412828567    1.00107593034505    2.11468581824206
C        -0.43892094534912   -2.68720210996069    1.62583520083429
C        -0.14139596614577   -3.79685158449818    0.86084996927731
C         0.64280455999961   -4.81604316874898    1.37845018887125
C         1.12735602841815   -4.71926852356830    2.67423961679938
C         0.83460852916257   -3.61804324140916    3.45090759436107
C         0.04664542403025   -2.58078588803763    2.93471792120458
C         0.96960267865930   -0.85134812743350    7.46467714565641
C         1.31643736870338   -0.52318590051824    8.75937165685234
C         0.77956416841824    0.59995130218814    9.37017530733413
C        -0.11239737853268    1.40169389194079    8.67311285995880
C        -0.46823567263084    1.08663363500312    7.37757237660785
C         0.06819210487217   -0.04709374998017    6.75493852855226
H        -0.50121547018147    2.75702081457401    4.71220533976275
H         0.33526624824129    3.33714543108108    3.24631158389718
H         1.18297732049959    2.26783255012115    4.38444486502860
H         0.18105259934492    0.18214025597677    1.51848270978076
H         1.59007170822414    0.70044144768054    2.48176133137420
H         0.74114982028519    1.87295026200186    1.45344782184794
H        -1.05454552868988   -1.89171007771968    1.22246283438675
H        -0.52435467419432   -3.86884902895500   -0.14690868892583
H         0.87284133088784   -5.68237359146050    0.77654736235823
H         1.73642845423464   -5.51353750132738    3.08147682598069
H         1.20065583765549   -3.53815261346017    4.46317644384868
H         1.38080987141692   -1.72534895026368    6.98254470889876
H         2.01063327996031   -1.14961607034587    9.30086494214434
H         1.05441050184957    0.84920172672611   10.38401436021486
H        -0.53037726467463    2.27842808867620    9.14661589293440
H        -1.16322247340610    1.70085056778552    6.81725754836068
N        -2.81812405346200    1.32667125838378    4.70951918282402
C        -3.31204008171482    2.47509937061086    3.99057431239588
H        -2.61118271711116    2.75715610115462    3.20190248977549
H        -3.44775634661802    3.33721550516703    4.66777028708082
H        -4.29543129990696    2.26803839492055    3.52948079995831
C        -3.70400730241115    1.00109253939621    5.79920841493615
H        -3.29385201005715    0.18210693383227    6.39540268167104
H        -4.70276877761336    0.70052390232294    5.43203448065148
H        -3.85387691940290    1.87293910143987    6.46048008843751
N        -2.81370679556596   -1.46511169092562    4.24393652127953
N        -3.30067031980037   -1.36358280463833    3.04168827140074
N        -2.78094728513670   -0.32276229712914    2.44972312252899
C        -3.18083461172870   -0.04708776882660    1.15906934916798
C        -4.08215487135466   -0.85140579249529    0.44929218991135
C        -4.42898381739226   -0.52324823507800   -0.84540436372453
C        -3.89222025611652    0.59996571058182   -1.45616043256143
C        -3.00031881025480    1.40175032418662   -0.75907299936393
C        -2.64447275565837    1.08668578399551    0.53646334039697
H        -1.94955730174409    1.70095343861701    1.09680807665672
H        -2.58241182401413    2.27853425526551   -1.23254326972012
H        -4.16707234802844    0.84922069057307   -2.46999710148891
H        -5.12317433610315   -1.14968794488839   -1.38690333699545
H        -4.49333479932767   -1.72542798511354    0.93141325154710
C        -3.15924445002472   -2.58079496810239    4.97928181466780
C        -2.67371566762373   -2.68718079246955    6.28818112319972
C        -2.97123611721536   -3.79682730309146    7.05317212210525
C        -3.75541391272956   -4.81603497789460    6.53556951873698
C        -4.23995522212001   -4.71927492458187    5.23977513937067
C        -3.94719506806255   -3.61806231267302    4.46309420261982
H        -4.31322068124768   -3.53819012511218    3.45081628442871
H        -4.84895673454284   -5.51358608739796    4.83251443315324
H        -3.98542165826656   -5.68237708814785    7.13746674430315
H        -2.58830088840738   -3.86880464486519    8.06094083148816
H        -2.05813529339557   -1.89166035183990    6.69156615975641

