44
CSD_code = NOVJIT | q = 1 | S = 0 | Stoichiometry = C14H23ClN5Pd(1+) | MND = 4
Pd        7.51552494862471    8.85584365606219    6.86108997493372
Cl        8.56457792269383    9.80532769690757    5.14106714240378
N         6.97691325447661   10.61683637449757    7.64181858951687
N         5.69544238917642   10.67208928538109    8.06311618992152
C         5.44104665786971   11.86971286879546    8.64210149224535
C         6.61663269441694   12.58977680435687    8.58580133332155
H         6.77920435686913   13.58246489550879    8.94969455993412
C         7.56014391800959   11.76597134304080    7.95313743754976
C         4.11695185631160   12.24249008900969    9.19378229656611
H         3.35984483723394   12.25076346649993    8.41008605505318
H         4.17352267247813   13.23802119916147    9.62308837774160
H         3.79986371105453   11.54800478048988    9.97098221313767
C         8.99141274837213   12.02099740353274    7.66326596910492
H         9.51014033422799   11.07416556319962    7.48996722971977
H         9.45848697301034   12.55678012384744    8.48583041523453
H         9.08654623142280   12.62767440535103    6.76343634646679
C         4.83948781980554    9.52842372927736    7.87475366885866
H         4.96178368980175    9.17466410595994    6.83119873528662
H         3.80199811205292    9.82803135302348    8.02904499724498
C         5.19927056411138    8.37684037168878    8.83915890963394
H         4.93788240384127    8.65723425647662    9.86714270885145
H         4.60307605602474    7.50523602858537    8.55809508545488
N         6.62309399196640    8.04296649091251    8.72485474984637
H         7.14998853727177    8.65567504186705    9.35530584430906
N         7.86634704593370    7.01221554088685    6.18553272904577
N         8.31174551485324    6.07171129796440    7.04180378382113
C         8.45894981908325    4.88471125379507    6.40592849570193
C         8.09417476071530    5.09547573892776    5.09283179413414
H         8.09449705861680    4.37481678098719    4.30228309189459
C         7.71825062409632    6.44295945686259    4.99580321382069
C         8.93675660369965    3.65207089172456    7.07627827305875
H         8.26291277923427    3.34832079788780    7.87697690196062
H         9.93064466088672    3.79923083992974    7.49747447143797
H         8.98996167183638    2.84723266862781    6.34962005298411
C         7.18373381653266    7.17735645209336    3.82328571267945
H         6.61296069232843    8.04998696784534    4.15572896615300
H         6.55080121183329    6.52438335393413    3.22760621063501
H         8.00138344808634    7.52812603510255    3.19481348256464
C         8.40414555297816    6.36587255523983    8.44830269483120
H         9.06262477099544    7.24075571243167    8.59177039413758
H         8.84795447763363    5.50717759491213    8.95225539368806
C         7.00740477014428    6.66377006397196    9.03244994729639
H         6.28113326593351    5.98296531495728    8.57730063606627
H         7.01868077345344    6.48386934848388   10.11483343175203

