81
CSD_code = NOVJEN | q = 0 | S = 0 | Stoichiometry = C32H40N8Ti | MND = 6
Ti       -2.12033661534313    0.31909636090325    4.07485676319464
N        -0.86024238343233   -0.16606574584585    5.58306915083657
N        -0.36881026449645   -1.23347130999789    5.01239489089321
N        -0.87370812647266   -1.36505582391998    3.82238682470454
N        -3.35554754746222    1.41451607236788    4.92109942913808
C        -0.41801012557510    0.12618430273401    6.85789885438625
C        -0.87888856554972    1.29936227260775    7.46706500017250
C        -0.46742842424915    1.63033106685726    8.74213811778087
C         0.40565963277488    0.80491109806890    9.43473165876763
C         0.86568401707821   -0.35979563725148    8.83962501679433
C         0.46309584123259   -0.70292441930374    7.56535368796285
C        -0.52859489431248   -2.49625718133409    3.10986958657923
C         0.32766130643579   -3.48283238569298    3.61675282820280
C         0.62950958024253   -4.59571545706881    2.86059833029509
C         0.08658024300028   -4.75472640952837    1.59455731332535
C        -0.76650542201899   -3.78708051188896    1.08728588561839
C        -1.07358722298336   -2.66624039832254    1.83188250157540
C        -4.10064070504516    1.04192076898006    6.10427749464074
C        -5.55304883672364    0.60725082289825    5.83426890444777
C        -3.87424685332195    2.58578704503718    4.24725476582292
C        -3.83136993999632    3.88013116495411    5.08013070418463
H        -1.56214796938986    1.93327914738836    6.91585225089730
H        -0.82781565024307    2.53886709388263    9.20299048887238
H         0.72478306950875    1.06733018067828   10.43214034391841
H         1.54428209086911   -1.00667885640335    9.37691431727623
H         0.81560243492994   -1.60964631407095    7.09733561004124
H         0.74247320327357   -3.35361268369626    4.60486015302122
H         1.29310966231860   -5.34931080004077    3.26009171030897
H         0.32560901694425   -5.62899640431308    1.00771454183767
H        -1.19521375114832   -3.90785455222723    0.10289901147476
H        -1.74257753900485   -1.91214323485938    1.43497121586391
H        -4.12663854011292    1.87262192727460    6.83124396112796
H        -3.57388669049590    0.20560395582673    6.58189899508057
H        -6.17072645467933    1.45513014807891    5.54622883561187
H        -5.97567156819724    0.16613816863529    6.73399380485440
H        -5.58270573815927   -0.13368531486369    5.03674361685526
H        -4.91810412395303    2.42277094605578    3.92200526483730
H        -3.26910748168114    2.73604720763539    3.34557997650472
H        -4.54285856212637    3.84596304678976    5.90182704893093
H        -4.08579164815420    4.72793611454511    4.44846987597180
H        -2.83360697264391    4.03686783160940    5.48656782823143
N        -3.38042715885160   -0.16606970903681    2.56664231705044
N        -3.87185259964435   -1.23347977912286    3.13731357265479
N        -3.36695967056680   -1.36506018986672    4.32732447749227
N        -0.88513348512850    1.41452470636814    3.22861429690524
C        -0.14003168431867    1.04193489488246    2.04544001150499
C         1.31237568248772    0.60726818917196    2.31545713502136
H         1.93005152495844    1.45514949525943    2.60349526203011
H         1.73500283545714    0.16615002079519    1.41573700750446
H         1.34202883404419   -0.13366251816630    3.11298752065056
H        -0.11402899129183    1.87263838749326    1.31847665011253
H        -0.66678129369790    0.20561857920245    1.56781290994148
C        -0.36644634025969    2.58580158987939    3.90245830081522
C        -0.40933733201371    3.88014493016776    3.06958191106845
H         0.30215766766376    3.84598648605188    2.24789081860495
H        -0.15493177639150    4.72795380907660    3.70124402394943
H        -1.40709948648648    4.03686639390281    2.66313674472116
H         0.67741224479624    2.42279764192015    4.22770966295640
H        -0.97158913798150    2.73605586244803    4.80413163316015
C        -3.71206959426414   -2.49626540356997    5.03983888885702
C        -4.56832101110202   -3.48284591870508    4.53295031333241
C        -4.87017196554651   -4.59572754097607    5.28910651229098
C        -4.32724325991625   -4.75473916339321    6.55514934955643
C        -3.47416274354318   -3.78708789770164    7.06242394462079
C        -3.16708643722888   -2.66624480392332    6.31782917295391
H        -2.49808673863622   -1.91215756327741    6.71473277511668
H        -3.04544653929734   -3.90785732876611    8.04680714952053
H        -4.56627808384919   -5.62900521059966    7.14199288787612
H        -5.53377279198205   -5.34931632663417    4.88961927317571
H        -4.98313915475540   -3.35362345642752    3.54484695265374
C        -3.82265761644047    0.12617816658580    1.29181141639872
C        -3.36178296595341    1.29935874786406    0.68264787687277
C        -3.77324291601837    1.63032901977818   -0.59242487108215
C        -4.64631260969757    0.80489706903535   -1.28502800390364
C        -5.10632078641133   -0.35982006639695   -0.68993011887763
C        -4.70374942395738   -0.70293936975349    0.58434917034528
H        -5.05626431054749   -1.60965721412592    1.05236927573255
H        -5.78493755529709   -1.00668996825686   -1.22721076796856
H        -4.96543264194380    1.06731339266582   -2.28243824500984
H        -3.41283879926952    2.53885492693142   -1.05328466400632
H        -2.67852336875674    1.93327381605185    1.23386089455892

