44
CSD_code = NOVJUF | q = 1 | S = 0 | Stoichiometry = C14H23IN5Pd(1+) | MND = 4
Pd        8.91680799999587    2.04415812825447    4.25644749226340
I         6.91428400008736    2.45050900420588    5.81282097184130
N         9.29305534131001    0.23149085707913    4.99114957961877
N         9.35590971490515   -0.81428367660734    4.14488806678545
C         9.65320676934382   -1.95038680987344    4.82103472558720
C         9.77159687773777   -1.59727561533483    6.14887972642467
H         9.99134916289710   -2.24628576947079    6.97025502470932
C         9.54903106463824   -0.21455901996324    6.21440760947631
C         9.79227306136731   -3.27383027590581    4.16947547835341
H         8.88009652296533   -3.54239169400760    3.63781797883956
H         9.98050559265098   -4.02787523838899    4.92758734121267
H        10.62098279509585   -3.28381685398195    3.46155654724760
C         9.62681992669089    0.68534849863373    7.39170237855784
H         9.78445830958028    1.72040997171337    7.06945335447564
H        10.44162808200862    0.37820574046355    8.04295458224761
H         8.70100292899577    0.64219033861389    7.96479117588913
C         9.34175139604237   -0.58252532855461    2.72385588763679
H         8.42627192325141   -0.02379615394800    2.45525582023301
H         9.32433820285162   -1.54570555972852    2.21390327948696
C        10.59102095044071    0.22414737392426    2.30661281468644
H        11.45380247826255   -0.14534470809431    2.87058315071877
H        10.78577424621714    0.07027099056009    1.23827449377658
N        10.38847964324271    1.64230891339513    2.61393967000818
H         9.82111470009953    2.04189243705025    1.85843382675468
N         8.87004467468794    3.86024244057722    3.39827569357423
N        10.10419284534752    4.39940351987383    3.27031031167063
C        10.03530213904864    5.59039824047106    2.62884689114511
C         8.70379369455358    5.80192970156268    2.33939428674192
H         8.28115952668252    6.64710200942619    1.83818478973931
C         8.00337540146635    4.69059182402075    2.83252255682171
C        11.22059424233706    6.43445670136537    2.34965019218543
H        11.70516855110862    6.73956622756492    3.27690018663448
H        10.90719043450337    7.32845544464209    1.81928554944964
H        11.95119679227919    5.90725179288730    1.73680201961396
C         6.55340846882474    4.39792336604877    2.73978107827537
H         6.37912664252854    3.32024411243849    2.75866425470184
H         6.14323826265881    4.81997212157376    1.82613784046009
H         6.02614904824598    4.83925120778886    3.58538115108447
C        11.25676094335272    3.66412137112575    3.72640742700132
H        11.04560512302496    3.27642737570424    4.74540314033881
H        12.11273095140186    4.33843412133009    3.77957334552515
C        11.58055705397541    2.47759904566692    2.79018298076633
H        11.95080167486872    2.85390498703185    1.82806558618683
H        12.37134183842797    1.88346883886249    3.25604974125905

