152
CSD_code = NOVNER | q = 0 | S = 0 | Stoichiometry = C65H81NO4Zr | MND = 6
Zr        9.14169348383449   -0.03640362619120   -3.85104922305738
O         9.92723045247685   -0.01367584301227   -5.61567884419323
O         7.28382950907708   -0.80549121082733   -5.20233452078442
O         9.04959054915419   -1.91314225717040   -3.29259021347034
O        11.51986145663274   -0.21730031023393   -2.95159147193849
N         9.09921152055266    1.72174157739916   -2.89005907217280
C        10.51404902939327    0.06003162397989   -6.78569020012973
C        11.90475647717319    0.26190595246340   -6.88396916326262
C        12.51856087957196    0.34340121018295   -8.11644709760309
C        11.80193941352670    0.23709794774455   -9.30583133664135
C        10.43185473402818    0.02891417806783   -9.20587827564205
C         9.78831426096044   -0.05268533034019   -7.98526429728082
C         8.30641077558707   -0.30028037895661   -7.87195465890579
C         8.08145167342367   -1.68462298563231   -7.32569547418091
C         8.37879529592801   -2.78334669033561   -8.11827764217972
C         8.22140588606923   -4.08907987275453   -7.66888743406293
C         7.73524176205034   -4.26796861463118   -6.38146184893021
C         7.41067928979000   -3.19298435951075   -5.56300695470483
C         7.61343396121997   -1.89523924647759   -6.02881505853533
C         6.87075469898267   -3.45254932896401   -4.18060044743206
C         7.96177262117644   -4.03043324497598   -3.31988175994503
C         7.94867085675213   -5.35160713671700   -2.92545961438721
C         8.95754883219090   -5.91031760971580   -2.14560835857531
C        10.01036087021317   -5.07833568219253   -1.79125577522197
C        10.05059502001624   -3.75003102641195   -2.17253608488744
C         9.02298752995043   -3.17917551228693   -2.94940765787811
C        11.23758749525743   -2.87243267529731   -1.87071884325130
C        11.90380534475332   -2.59245260410928   -3.19405082765139
C        12.37967897606585   -3.65457246902874   -3.94580017921697
C        12.91950778260126   -3.47729099475825   -5.21391664025751
C        13.00968294215241   -2.18219608659630   -5.70047649887385
C        11.96418568387620   -1.30590406694741   -3.72955233294042
C        12.66499207577417    0.28736547490812   -5.58343775984346
C        12.55851199384878   -1.08792848635965   -4.97022357671407
C        12.53574775416059    0.34043038076905  -10.63471429306564
C        11.60251125968768    0.18183916679446  -11.83812364619998
C        13.60108704466927   -0.76307616735922  -10.71185503213468
C        13.20795958813447    1.71716913915975  -10.73265903072697
C         8.51040151898191   -5.25147971128976   -8.60764459406815
C         9.86921759175980   -5.06039050669811   -9.29463456222810
C         7.40245281920705   -5.28501110077357   -9.67099734738532
C         8.53015445602917   -6.59859532591616   -7.87899315211061
C         8.86891246151170   -7.37188249481273   -1.73387651265802
C        10.06730830935516   -7.82232520110140   -0.89383151398941
C         8.81323239912028   -8.24996181095155   -2.99241255226959
C         7.59752816888011   -7.58231971715600   -0.89936565745601
C        13.36529468275176   -4.69439358652321   -6.00785067213004
C        12.20601315905443   -5.70152853158407   -6.05110899999673
C        13.75135422038894   -4.34047873292643   -7.44657566408756
C        14.57961928985577   -5.32816749323382   -5.31562423679603
C         5.91068774587668   -0.45211391755287   -5.35339362088726
C        12.58939534466431    0.18171811682906   -2.09128450592022
C         9.64032832982606    2.77126145258906   -2.02141114903368
C         8.79643904869706    4.05474107812937   -1.88627940190568
C        11.00370916290213    3.21088528636595   -2.61377484189704
C         9.87530870382151    2.24197838286484   -0.57809381450625
C         7.71736809852753    1.51438200175038   -3.26150730708956
C         7.08522963270851    2.58524894054044   -4.20416114564333
C         7.68261772720537    2.68408312481792   -5.57853690024083
C         6.85657462581980    2.82555212745549   -6.69182555142492
C         7.38677354944816    3.02876691912096   -7.95459588584600
C         8.75828929553227    3.09452155344604   -8.12885800414786
C         9.59276119633496    2.94685658837055   -7.03349695382998
C         9.06288094243154    2.74071735968250   -5.76995779388451
C         6.74471444303665    1.27570036752580   -2.05374742873189
C         6.70116380863455   -0.16270189267480   -1.63222270232026
C         7.81918507105402   -0.76029228416361   -1.04276540715666
C         7.74727543635183   -2.04988217982081   -0.54090959247695
C         6.57902124431528   -2.78449991236820   -0.66020362299837
C         5.47821396067094   -2.21883160293410   -1.27950802216164
C         5.53739620297772   -0.91833657822699   -1.75236587905804
H        13.58909136696723    0.49637484562805   -8.14310308165991
H         9.82854265212701   -0.06671064873332  -10.09559682902097
H         7.88695011364666    0.44226156695517   -7.18967447330984
H         7.83399570479075   -0.20286071879201   -8.85222224876111
H         8.73871173593816   -2.59005853625378   -9.11697861382136
H         7.58805518250330   -5.25675229620397   -5.97870751445914
H         6.53599401413512   -2.51898246382913   -3.72119742486589
H         6.03123810840704   -4.15033770817768   -4.23645770343160
H         7.11126329608724   -5.96187191433973   -3.23524032440107
H        10.83092964266316   -5.45455594689817   -1.19851512763654
H        10.89224886975725   -1.93965426911780   -1.41169295383311
H        11.92861728052944   -3.38001009448536   -1.19242782590558
H        12.29917570017047   -4.64248343081866   -3.51957022156117
H        13.42720377913951   -1.98492645779668   -6.67411058204243
H        12.21197126540993    1.03310083386343   -4.91874802666598
H        13.71421529427702    0.54174814910276   -5.75739043907726
H        12.17729926093917    0.26652012518160  -12.75872909999931
H        11.11991513547267   -0.79277570677922  -11.83157415170012
H        10.83988157530251    0.95693238912723  -11.84518228033780
H        14.11821006420784   -0.72345813533666  -11.66876887667794
H        14.33965422173869   -0.65464663552487   -9.92252756134084
H        13.13563326948328   -1.74143837198959  -10.61019133313718
H        13.73187413740844    1.81647663326936  -11.68159297342297
H        12.45940655736679    2.50390079393827  -10.66618529686717
H        13.92531571320589    1.86313725591483   -9.92989110030375
H        10.10370727338771   -5.93142380061381   -9.90322699231059
H         9.87202757126843   -4.18951307054851   -9.94331603965673
H        10.65406268215579   -4.93626824372943   -8.55349819485697
H         7.57230296041717   -6.10441543324978  -10.36632437679910
H         6.43148808372970   -5.42523816939234   -9.20064329571681
H         7.37734429009494   -4.35454962946151  -10.23232395258593
H         8.81908151296664   -7.38481824069383   -8.57363854887383
H         9.24588532352580   -6.58712591891178   -7.06055433871260
H         7.54753342227007   -6.84832726423861   -7.48680373713060
H         9.95025196495276   -8.87050814897556   -0.62438809800566
H        10.99563041184448   -7.72073850117158   -1.45147220766650
H        10.13880882612875   -7.24499384989840    0.02501630553835
H         7.93698985814161   -8.02297924495658   -3.59304287225376
H         9.69683487530290   -8.08407594406555   -3.60555786312881
H         8.77482241497394   -9.30259545723716   -2.71812307245783
H         6.70789902305623   -7.32139328124670   -1.46579672427963
H         7.51414707972576   -8.62294838255053   -0.59114713565830
H         7.62815329756285   -6.95904376428317   -0.00794815490466
H        11.29284141637158   -5.20291783398152   -6.36954932134309
H        12.43055888574721   -6.50668868636350   -6.74796147034247
H        12.02320474840819   -6.14173578994349   -5.07493600656498
H        12.92748732287304   -3.84892033615365   -7.95889082605504
H        14.62142862289507   -3.68884718198158   -7.47069633914433
H        14.00031821362487   -5.24869747769669   -7.99208329697425
H        14.34151176240471   -5.61246062595362   -4.29405124582557
H        14.89773348142012   -6.21762223424475   -5.85533712086267
H        15.40893627017576   -4.62436908165883   -5.28932129723739
H         5.67695638311081    0.23974423304528   -4.54627322305781
H         5.73552865064326    0.02909664003314   -6.32281964260027
H         5.26732947672463   -1.33614614279985   -5.28064359764614
H        12.22386543779273    0.97080371587914   -1.43882295829081
H        12.93602239873823   -0.66224707747438   -1.48459690196989
H        13.43722157986234    0.55637656410763   -2.67691970161436
H         7.79829455108540    3.85038322632920   -1.51096616387002
H         9.29157045106313    4.72362397407607   -1.18285147035504
H         8.72085611249549    4.57094689453817   -2.83981540678069
H        10.84873688610747    3.94334601867042   -3.40373961200892
H        11.64009615829192    3.66480398627878   -1.85535591790730
H        11.51068557145157    2.35216938295157   -3.04764291373351
H         8.92926331830265    2.12889642638722   -0.05298112435657
H        10.36659978708626    1.27036101389232   -0.60724455257942
H        10.49437763019360    2.93305427172001   -0.00649729806174
H         7.16566341397364    3.57993384086295   -3.75052038334018
H         6.01258922580524    2.38934036067418   -4.31245763236118
H         5.78151787773023    2.79486383273367   -6.56704407890401
H         6.72642721511196    3.14343463943733   -8.80289691236460
H         9.17555736741270    3.25958506808442   -9.11101165507322
H        10.66363776705396    3.00184691532807   -7.16735385655964
H         9.71254679334691    2.64542270254486   -4.90829167384874
H         7.06704591155701    1.87060973748922   -1.19196927725880
H         5.73147715805544    1.60132118541552   -2.31005432935468
H         8.72635913302921   -0.17664623461177   -0.92114587995140
H         8.60192483169383   -2.48843960857217   -0.04574517801825
H         6.53077716622432   -3.79146906512886   -0.27451768951690
H         4.56351331228531   -2.78602858028652   -1.37903497734075
H         4.65589146820709   -0.47499513877223   -2.19791755986262

