71
CSD_code = NOVPOD | q = 0 | S = 0 | Stoichiometry = C23H38N2O5P2W | MND = 6
W         1.56797744030395   11.45360849934944    2.83934510139010
P         2.81406345541088    9.53765472890972    3.99094777565016
C         2.08705136624806    8.03947208150475    4.71661832012524
C         2.72318423975924    6.96485454722019    4.18374894384435
P         3.71011559366319    7.81390583471800    2.93999498169187
C         1.05182923535128    8.05611230071549    5.80063658867113
C         1.34860700109992    9.22228788742356    6.74643023570185
C        -0.31438102559560    8.26207127177567    5.13177038149020
C         1.04126909914147    6.74444572219207    6.59123839912116
N         3.36439124940047    7.21061758694905    1.40956232196081
C         3.84746680898725    8.05793380613082    0.31643393262688
C         4.66581815770902    7.25138575205527   -0.69223695457998
C         2.73025693725139    8.82073916774548   -0.39087542255939
C         2.35112668061595    6.20857518280215    1.07892574705498
C         0.95748806934997    6.53001029021044    1.61340519631877
C         2.79572817947218    4.81312543525749    1.51557047542456
N         5.37375154869922    7.67185994383418    3.04446284328982
C         6.21842073868145    8.66093557529651    3.71695089839906
C         5.94448808208615    8.78995999603530    5.21420985670372
C         6.09690454221577   10.01275421095566    3.02060116609074
C         5.92099143176384    6.33392356082004    2.82191108141135
C         6.13341061140250    5.54929423023765    4.11590914896291
C         7.21140257425939    6.37119409704486    1.99895905758886
C         2.98176429485562   11.48315666896358    1.43168254631224
O         3.82853828069475   11.64502708261582    0.67598408304809
C         2.74983193211592   12.70686408856225    3.85295025141944
O         3.38666430381669   13.48659373532250    4.39555736540880
C         0.20306163027222   11.65088795438889    4.28487997172199
O        -0.58387515755345   11.91803873183923    5.07193674045912
C         0.28494852636372   10.28850197008006    1.85100912817062
O        -0.54257847806984    9.71433436293017    1.30202233663411
C         0.71537895671597   13.01535343187883    1.97784928746584
O         0.22542334455954   13.92189028294194    1.47576035960867
H         2.62102288318278    5.92835257899956    4.45386268650400
H         0.57393395418070    9.30622559689457    7.50556661524538
H         1.39097421333633   10.15942019015026    6.19011157564151
H         2.30716153073491    9.07360338712691    7.24034837253170
H        -1.08898899082884    8.37700991389356    5.88657812258986
H        -0.56552593710461    7.40981279682817    4.50319074604703
H        -0.29915403093697    9.15432487497211    4.50718007462786
H         2.02293944906791    6.54619544135919    7.01630611786216
H         0.75933799808651    5.90783801374898    5.95598559971013
H         0.32073955183760    6.80993224756421    7.40326559492098
H         4.51170027235368    8.78979091587768    0.79668196981148
H         5.16784477767258    7.92980187194245   -1.37704412092186
H         4.02968271339969    6.59164255748481   -1.27766965238525
H         5.41341469345766    6.64867123333855   -0.18588670617326
H         3.16133159752205    9.54510369447179   -1.07723644943839
H         2.12205206828969    9.35665036263518    0.33662454041766
H         2.08729980518711    8.15358770703120   -0.96017926919670
H         2.28893812705206    6.20170821649426   -0.01313981852334
H         0.22548236999531    5.87266988525760    1.14894789543132
H         0.69086393855076    7.55715681033657    1.38558103578771
H         0.91520545723827    6.39264594887982    2.68939961888785
H         2.02306364714303    4.08927790917783    1.26761361650796
H         2.96840714820334    4.77906330248791    2.58724184844456
H         3.71100089247667    4.52494319132136    1.00288025436317
H         7.24774649267480    8.31158642412820    3.58913115628001
H         6.65688125609296    9.48152212085385    5.65745519695734
H         6.03701303482099    7.82993369891365    5.71353852571208
H         4.93889561611260    9.17273768821732    5.37615214667569
H         6.76675304076971   10.73254468793979    3.48395920910015
H         5.07960492069039   10.39607227689326    3.09931762892560
H         6.35830480236354    9.92472097903357    1.96807570751186
H         5.15664570203541    5.81560551691910    2.23474858103659
H         6.95315924119846    5.96629093407101    4.69580931235317
H         6.37364889590069    4.51471884930536    3.88152039159595
H         5.22924246768044    5.56972526769898    4.72034246408158
H         7.38195483296585    5.39768186257860    1.54543921631850
H         8.07448703294510    6.60254028078993    2.61872447931852
H         7.14221488257007    7.11692074577546    1.21142356875900

