177
CSD_code = NOVQAQ | q = 0 | S = 0 | Stoichiometry = C48H108O16Si4Zr | MND = 5
Zr       11.96978610645127    0.75737055520935   35.87576951593604
Si       13.94948405010964   -0.28331063632064   34.12791870740254
Si        8.83416330676727   -0.79744435324338   35.56070772246240
Si       13.26791946967219   -0.11487993312253   39.01347917429272
Si       11.23523456473447    4.18956371221285   35.69449521429934
O        13.60690339690452    1.15102110319479   34.70860664230778
O        12.91226390517836   -1.16015734629263   35.12779976905674
O        13.47522006847638   -0.50496537649396   32.56768664287806
O        15.44448341708524   -0.89849481857511   34.23483639917328
O        11.34628071092046    2.60141299496184   35.66811118932177
O        12.69100532347871    4.94820665008410   35.53058878725816
O        10.30260093624563    4.86230786913688   34.52857885698378
O        10.49309647416183    4.57093061126093   37.10542155459485
O        10.22786071926568   -0.09864523504368   35.86380927453896
O         8.99740508535264   -1.44265020224778   34.05765270985541
O         7.54244894526885    0.21263239299529   35.65989228927266
O         8.45503063185238   -2.09194584212512   36.48886922449868
O        12.81341242193231    0.27541822486649   37.54189225678932
O        14.84971388785654   -0.49163810892861   39.18471488316252
O        12.97102291540854    1.13601844606209   40.04669020842292
O        12.45955195661986   -1.47118174563906   39.45335417451980
C        12.92944872466076   -2.56102663757876   35.43871489295420
C        12.75253995280134   -3.36135096278522   34.14559813411872
C        14.24385773894489   -2.91558725694908   36.13717009362104
C        11.76082126013187   -2.81355866406951   36.39268132690754
C        16.57947304446964   -0.68513713401334   33.40578332550152
C        17.79867695049576   -1.14845290963678   34.20929882389893
C        16.43027086793387   -1.52415847988586   32.13541145233434
C        16.70840072993699    0.79481800461938   33.05687444229383
C        12.40896632904404    0.15320117652854   31.89859768080539
C        11.93631952416104   -0.80682462283029   30.80164300797212
C        12.96472594551564    1.43987207894016   31.28252150742439
C        11.25614762059557    0.47487352974584   32.85927145995436
C        10.58748652856063    5.34501792109797   33.22988343574158
C        11.34840287464080    6.67081956602635   33.33132868218709
C        11.41143084832940    4.31821730716306   32.45653514315116
C         9.24024065002381    5.57124928374893   32.53117327073650
C         9.96114267453402    5.79329842638488   37.58941035783860
C        11.01843893939771    6.89746910508168   37.52943304461794
C         9.54960899153875    5.54753786963444   39.04586650203998
C         8.73584060881134    6.21158162445828   36.77181879964699
C        13.98844262401368    4.63816313566066   35.99835763496166
C        13.94327188148490    3.62501752973157   37.14336428863832
C        14.61816830828837    5.95335177123620   36.48299622750917
C        14.80511962947682    4.06972038766032   34.83182008353413
C         8.14239446116671   -2.34344114021774   33.37081673323679
C         8.45475476243631   -3.77076878385400   33.82925307144286
C         6.67271920430596   -2.02450494956206   33.63843704323211
C         8.44277555445760   -2.18672484421981   31.87556922638832
C         7.51555948015553    1.62513641496772   35.54819175264328
C         8.16025465195025    2.24147446962866   36.78886466820417
C         6.03780325490382    2.02131320299072   35.44362169265142
C         8.28737224366670    2.08529602818244   34.31296020829684
C         8.03925879123952   -2.19312933902368   37.83732682975909
C         8.30495948676425   -3.64199574323394   38.26277411499668
C         8.82777971783233   -1.22829377747564   38.72236140650131
C         6.54177688529092   -1.87958557258622   37.92186954179450
C        16.01281136759496    0.22013596783681   38.80614479957946
C        17.20337536197151   -0.67864614073490   39.16733570357426
C        16.09033970930772    1.53037636518334   39.59173527708695
C        16.00135181923152    0.48774448611540   37.29831720982878
C        11.73534716442739    1.78554358049739   40.28357159246836
C        10.91017404108062    0.95845406332463   41.27649032990850
C        10.93249095514815    1.96324769103418   38.98955844811076
C        12.07515207453459    3.14803189490162   40.89958957010663
C        12.77455637579291   -2.46811880583326   40.41596478239095
C        13.39391055410664   -1.85527517861874   41.67090327317484
C        13.75862565156630   -3.46434513234883   39.79737991709488
C        11.46054078689157   -3.17472279082337   40.76622849309911
H        10.75309626523384   -0.03256077081026   40.86324248649704
H        11.44226388775355    0.87093897831374   42.22072422880780
H         9.94794624196192    1.43030281144034   41.45617577502556
H        16.97324121984432    2.09762556956952   39.30756390315688
H        15.19488801609395    2.11208515719462   39.40249567044967
H        16.13224740862984    1.31509466609226   40.65631641134992
H        14.35114596025736   -2.28414161739595   37.01621738436049
H        15.08041817275770   -2.73568627760860   35.47018241836077
H        14.24308189600217   -3.95995226544397   36.43930915100437
H        15.84349530458184    3.94168737947962   35.12683269569636
H        14.76238085718452    4.74939788292247   33.98353552836272
H        14.39443553223849    3.10355080374003   34.54453276970069
H        12.73452585047068    3.00643433504330   41.75204204877184
H        12.58612708355151    3.76999953328688   40.17031328115355
H        11.16987503619849    3.64956322434708   41.22989356042135
H        12.75597613637416   -1.02393502079954   30.12163466249913
H        11.11494237721209   -0.37179982994448   30.24030510463318
H        11.60921285481487   -1.73977917892311   31.25046430662412
H        11.86892711189020   -2.16131490113428   37.26087980187034
H        10.81741928648889   -2.59199630359199   35.90049176735096
H        11.75743407278850   -3.85355109475919   36.71464886519810
H        17.66719370700503   -2.18073673519899   34.52267884028598
H        17.91821358868438   -0.53050818989065   35.09406558806652
H        18.69569189622841   -1.07684502622058   33.60054355615634
H         9.48328383330855   -4.02680208273538   33.58808458616630
H         7.78907085941433   -4.48143536570408   33.34656231940335
H         8.32931523894888   -3.82102330530265   34.90580685089693
H         9.20004127029916    1.91200270660338   36.83720661442076
H         8.15290091325048    3.32327268914816   36.71822683951187
H         7.62850523170103    1.92818559987360   37.68559482040768
H        17.63715743106419    0.98169001188187   32.52461349752456
H        16.68574861064812    1.38289338161109   33.96936371747613
H        15.86915523017610    1.09611801757710   32.43851264267028
H        11.81378398995806   -3.07641306037413   33.67465838663441
H        12.73390174440764   -4.42742430050623   34.35746456751039
H        13.56885366865308   -3.14543255362427   33.46097922889678
H         6.02978207207918   -2.68926266168495   33.06686044608178
H         6.46797510826053   -2.13774941008183   34.69703607453997
H         6.46391233416269   -0.99528336162048   33.36279016469917
H        11.59950580113850    7.04274347437832   32.34144985877906
H        12.25520154085872    6.50975586107566   33.90433611593846
H        10.73907008552471    7.41093017692977   33.84431213410944
H        13.49137812527618    2.68512578218974   36.79042550570500
H        13.33655716111698    4.02773795354446   37.95208441024327
H        14.94972261715603    3.43759458407706   37.50871806078527
H        10.00714782943771    2.49149415821623   39.20219740556070
H        10.70729759473561    0.98352444363789   38.55866758577399
H        11.49821997519406    2.53783854937378   38.25220638686674
H         8.00099537224190   -3.79644031710840   39.29445768583135
H         7.75018755902580   -4.32450421481925   37.62374202837790
H         9.36394259035227   -3.86078724695607   38.16213138191152
H        15.04883502951437    0.92626034301754   37.00323271510040
H        16.11210033873568   -0.44580258660378   36.75390456270407
H        16.81416441412786    1.15714361470843   37.02627371706699
H         8.57377308529240   -1.38327965816619   39.76839198691801
H         9.89544493389783   -1.38181273680672   38.57915407329748
H         8.58639166676179   -0.20837918608960   38.43957170536709
H         5.49548473914196    1.66922201344065   36.31734791703067
H         5.59277684806482    1.56887764389880   34.56119249491383
H         5.94253836119196    3.10138997728550   35.37712504520924
H         6.20747763885049   -1.88641565052933   38.95595246776126
H         6.36355497974312   -0.90280426404568   37.48319666138953
H         5.97361936893912   -2.61736413989047   37.36041798846466
H        12.71213875492370   -1.13535918869709   42.11078444121701
H        13.61381325372667   -2.63250936004395   42.39846451099588
H        14.30834022919399   -1.34007478677383   41.39870466067367
H        14.04229663555856    6.36373190364631   37.30710536704895
H        15.63945768427188    5.78441206750858   36.81315517124712
H        14.62332479290691    6.68006781742915   35.67481976781498
H         8.62838354825768    6.25515937560575   33.11361905031428
H         8.70725191501814    4.62982613633234   32.43321384104321
H         9.39822233149800    5.99442757150058   31.54265430317263
H         8.17314080819620    3.15732706711261   34.18342850309892
H         7.92431122070711    1.56173461850595   33.43103728483666
H         9.34477544311194    1.86351750737015   34.46488503412423
H         8.82843132295126    4.73656921586278   39.09166369917181
H         9.10236206780432    6.44541576203981   39.46460186033981
H        10.41828286216419    5.27353678320514   39.63613100922790
H        10.99918711007940   -3.56550567085179   39.86445133792409
H        10.77025393526878   -2.47610762833802   41.23094666324462
H        11.64857807065444   -3.99447161239131   41.45451084406794
H        10.91341502677457   -0.43389754030715   33.36568719698227
H        11.57834521892899    1.21282720350137   33.61364711636810
H        10.41803879269012    0.88180616626248   32.29548354405596
H        17.26020864183925   -1.33893739276184   31.45937956805834
H        16.40707452148267   -2.58112240889139   32.38793126626366
H        15.49608779254056   -1.26300523797652   31.64917834816298
H        13.78938053766122    1.20225169573413   30.61420184021177
H        12.19578193941197    1.96214805631461   30.72175273197329
H        13.33331833210511    2.08134379689984   32.07846097366235
H        12.34168079608537    4.14184372609452   32.98671725161994
H        11.62345990072343    4.67268973791231   31.45080994394553
H        10.85770160026439    3.38562232843381   32.40783914452376
H        13.31698007900780   -3.92561082964369   38.91937879199014
H        14.65472086960056   -2.92877340783316   39.50169350705978
H        14.01779901618863   -4.23716927125087   40.51640988286213
H         9.00246105736917    6.22330982799107   35.72166420052922
H         7.92735069962671    5.49960620552123   36.91353828658654
H         8.39480786928812    7.19674689044575   37.07933747638690
H        11.34948124281109    7.02320987988888   36.50413646586816
H        11.87385691086423    6.61848975079363   38.13853959169602
H        10.61260844646901    7.83525375201528   37.90033622213495
H        18.13701514160881   -0.19173537142757   38.89910702954234
H        17.13001066068967   -1.62314556244220   38.63445547829343
H        17.20422332680447   -0.88464787429210   40.23459091815049
H         7.80637564420082   -2.84768283672137   31.29324730977251
H         8.26407061691565   -1.15989277940535   31.56850457096921
H         9.48142247752021   -2.43136707097354   31.67485903363800

