71
CSD_code = NOVZAB | q = 0 | S = 0 | Stoichiometry = C31H36ClIrN2 | MND = 8
Ir        4.12235505606037    0.25611632670242    7.56463834194329
Cl        3.73072422846835   -1.46592219058768    6.01894831971500
N         4.34206220487611   -1.21714662380234    9.01916057806021
N         2.37580016950854   -0.45284619432451    8.47480636755156
C         3.03840956496150   -1.39048728362517    9.21564586719991
C         2.34415522453709   -2.36255335987110    9.95853002153122
H         2.89628483958160   -3.10618486278711   10.50986701041449
C         0.97324485369654   -2.33902676899377    9.91307658826960
H         0.39868976938034   -3.07033996245972   10.46292339614859
C         0.31056631904631   -1.36979876867073    9.15572905336289
H        -0.76665123350415   -1.33185061385563    9.12646384646962
C         1.04276473470244   -0.44360760559466    8.43343086024172
C         0.36486475008662    0.63602073648686    7.67552580928819
C         0.00941272376658    0.45366639740592    6.33857645660208
C        -0.62391213623027    1.49501063434301    5.67170709180455
H        -0.89560605837399    1.36979083844516    4.63343994278038
C        -0.91682488827371    2.68001831589544    6.32110766820157
H        -1.41386918953608    3.47914988643710    5.79039658097437
C        -0.58021478799540    2.84112488693446    7.65326837084848
H        -0.81767671616094    3.76456885217638    8.16200405078320
C         0.06668504905107    1.82526650588431    8.34242573871687
C         0.29462522639227   -0.84037559921974    5.64902264386763
H        -0.15318971757062   -1.66905620776526    6.19584812871556
H         1.36800231905746   -1.02436784786257    5.60749855206045
H        -0.09777819604372   -0.83436126664296    4.63545988623902
C         0.43131415783340    1.98967573995344    9.78877018923650
H         0.29291292746284    3.02032698545247   10.10834506821903
H         1.46577900632344    1.69658262408875    9.96089034773623
H        -0.19583371891328    1.35053409688708   10.41035768623388
C         5.37600107674911   -1.66402884875149    9.82801448722627
C         5.39654165182133   -1.33895301748357   11.19593199038369
C         6.46377788201469   -1.76619219182150   11.97189847249327
H         6.47646350985467   -1.52521155779370   13.02570306356550
C         7.51062058894296   -2.47836232993294   11.41669567988206
H         8.33571463583026   -2.79879856490772   12.03525845439516
C         7.50028065321984   -2.76963113835949   10.06362597158605
H         8.32071514982574   -3.32116346437330    9.62703569929318
C         6.44722255525386   -2.37204181992884    9.25741488273609
C         4.29709761620436   -0.52964389411080   11.81756933889099
H         3.45688716684244   -1.16508292032213   12.10002757462812
H         3.92326259379405    0.21547278708372   11.11695582104288
H         4.65798052830336   -0.02745552927650   12.71293821522064
C         6.42564546562931   -2.69591100880404    7.79966700957184
H         6.33805420483555   -1.78511047060294    7.20966058043296
H         5.55523788990453   -3.30456045352804    7.55975885590074
H         7.32523671204651   -3.22958153043813    7.50372108206929
C         4.50072940107424    1.87211796373925    6.05976709990478
C         5.74100497387562    1.23357999194216    6.44034092114699
C         5.96005539619549    1.49225748883334    7.82344896239508
C         4.83479863213412    2.23451285337746    8.31729354004688
C         3.96654710198216    2.51152757040255    7.20542864385641
C         3.99761210902179    1.97618609121157    4.65709869637796
H         2.96030151239176    2.30046358885066    4.63906586239258
H         4.06665128395126    1.01254661963270    4.15646173060690
H         4.59835438383843    2.69580687210403    4.09807502572230
C         6.69602124813575    0.62935625161696    5.46075056463565
H         7.06632777474869    1.40163068888580    4.78492603865456
H         6.19795085669928   -0.13197808536864    4.86209935093680
H         7.54539001152023    0.17355329814105    5.96308634913016
C         7.17955194373277    1.16094800377532    8.62151338406077
H         7.78862534009023    0.41355686903216    8.12057249958283
H         6.91606649607404    0.77242681180951    9.60401081576810
H         7.78080637939830    2.06081091073606    8.76103054736443
C         4.75470164300149    2.87332689742925    9.66667799206634
H         5.21179412061782    3.86455411062814    9.63525549413017
H         5.28500735967610    2.28068001471801   10.40860777944881
H         3.72170336623254    2.99113594011910    9.98799778619348
C         2.80554026074777    3.44855587174694    7.21764615010307
H         3.13582855468704    4.43436496049658    6.88404844714439
H         2.38951994586207    3.54974247729541    8.21557258298487
H         2.01647354101113    3.11086422111020    6.55018209280982

