77
CSD_code = NOWBIK | q = 0 | S = 0 | Stoichiometry = C42H26FeN6S2 | MND = 6
Fe        3.57270068449150    3.58913720262386    7.93378945615759
S        -0.25163908672802    3.25411866631878   10.42052020370891
N         4.85270957461203    3.69167078770889    6.30107177695667
N         4.22413952960567    1.73690811017159    7.83759914099579
N         2.15199730524423    3.14612822621151    9.07457996947801
C         5.20762473210743   11.07605735058204    2.75329724511891
C         5.33483550889568    2.58653385600412    5.93330580975459
C         1.11907251418615    3.22682546331804    9.63733823190415
C         5.00125417661715    1.45248905884598    6.76194688285386
C         3.96058709831970    0.75559240879800    8.69423680710934
C         4.40070049559995   -0.54267819034006    8.51365681218182
C         5.50079589545707   12.20785739675516    3.51736850709318
C         5.53315545805015   13.45322975023076    2.92158231392167
C         5.16050409425360   -0.85020339529301    7.39137394745397
C         5.47316619762621    0.16733747736252    6.51125219435965
C         5.27607090703620   13.58594183612416    1.56581083695808
C         4.98443978374852   12.46580400159732    0.80288500681995
C         4.72448472533534    5.06430850601629    4.30791505772296
C         5.00983571113470    4.91783091483635    5.66654425110031
C         5.12871981849663    7.43226509845934    4.46615759425950
C         5.46871803145002    7.27435981074687    5.81431639527376
C         4.94846757811742   11.21546471353629    1.38795919602550
C         5.40843436529319    6.03394488509284    6.40589254877211
C         5.15426048300059    8.70743140113668    3.86922641619270
C         4.77495794371401    6.30727172202494    3.71675198863231
C         5.17672083015497    9.80094704758622    3.35518390740103
H         5.70155581623582   12.09683905408623    4.57306471376341
H         5.76068786424173   14.32646352186764    3.51542617181441
H         5.30355107513500   14.56167028714394    1.10398100354257
H         4.78486912347688   12.56982076260365   -0.25367736021449
H         4.72290366849800   10.33813854512644    0.79932646786554
H         5.77598792969658    8.13648575898170    6.38750870831536
H         5.67117022663707    5.90231070814346    7.44499663098246
H         4.47191143307020    4.18848651422982    3.73090435758713
H         4.54047259248883    6.42112889414972    2.66873215647403
H         3.35963215196840    1.03101091874597    9.54907089337355
H         4.14895541973061   -1.29929604804129    9.23943898215064
H         5.50691864042402   -1.85739290086483    7.21808202733711
H         6.07711226662583   -0.00508617663869    5.63499600715706
N         2.29144135408722    3.48675906596926    6.30177780177480
C         1.80933141948365    4.59203001583169    5.93437739443536
C         2.14368722422856    5.72599767001359    6.76280368585156
N         2.92135906595483    5.44143509083612    7.83801217953206
N         4.99388806924983    4.03195391735750    9.07403480244694
C         6.02683225891355    3.95078955198631    9.63667081870422
S         7.39747023461866    3.92277264156256   10.41995602375094
C         3.18584915996642    6.42278276791082    8.69432143471050
C         2.74615335362663    7.72120610544991    8.51381430534524
C         1.98574402621854    8.02885648306227    7.39197792989791
C         1.67211106033386    7.01129867559684    6.51222244534141
H         1.06767685973844    7.18382264460113    5.63632297875258
H         1.63961251195895    9.03615540117437    7.21875653045368
H         2.99869502950870    8.47783957305535    9.23930323834464
H         3.78729769007021    6.14728407426172    9.54878093590824
C         2.13382125794135    2.26073802404503    5.66712975250435
C         2.41727167017039    2.11472516835979    4.30804742393734
C         2.36662462369541    0.87187334584839    3.71666528440190
C         2.01456811795935   -0.25348998742905    4.46631675926009
C         1.67617715160422   -0.09604118663556    5.81493592399413
C         1.73663439523225    1.14426723106025    6.40670899077676
H         1.47513985272763    1.27554823173910    7.44616845949878
H         1.37009699789344   -0.95845109618774    6.38833745839244
C         1.98943091677716   -1.52861432542962    3.86928032724664
C         1.96772429149532   -2.62217020848351    3.35527811720958
C         1.93799076412605   -3.89737692009502    2.75353553338885
C         1.64491632431754   -5.02925295967397    3.51752643134102
C         1.61402700555631   -6.27475396363442    2.92192649608413
C         1.87250747346065   -6.40751847140168    1.56642727475714
C         2.16399367200392   -5.28729535021213    0.80356857445451
C         2.19847827921993   -4.03682704526396    1.38845223741463
H         2.42395140398439   -3.15943658242480    0.79988086701125
H         2.36464319618384   -5.39135433174317   -0.25278530148379
H         1.84623695608408   -7.38335412492450    1.10475287998004
H         1.38658707359488   -7.14804997927731    3.51571417430285
H         1.44309208081235   -4.91820284125705    4.57301613014255
H         2.59971660120734    0.75838886484793    2.66829412105012
H         2.66857801252251    2.99081088383287    3.73087632080887

