68
CSD_code = NOWCOR | q = 0 | S = 0 | Stoichiometry = C22H42MoS3 | MND = 8
Mo       -2.13528674451972    2.63304565574648    7.72027996037011
S        -1.46462565442305    3.99258829668479    5.88842660928753
S        -0.80398117177487    3.74334636349396    9.28226235477090
S        -1.01052086104350    0.77137861462311    7.03135724501959
C        -4.34337599703880    3.74926705565894    7.17940668857728
C        -4.16676430299168    3.79606349348880    8.56391642469243
C        -3.97145164103994    2.44749900773603    9.03518670824642
C        -4.07027918415543    1.56224266931420    7.90469810685492
C        -4.21129019335726    2.38489800691821    6.75193575521646
C        -4.71111974253792    4.85039416589928    6.24114035639101
C        -4.31268986045667    4.97818523691685    9.47239502547065
C        -4.21153319903787    2.03744824337459   10.46017456775311
C        -4.26197229519673    0.07685366015044    7.96099503241443
C        -4.46764619694986    1.91626999924314    5.35226517761933
C        -0.85860817389570    5.72184972775801    6.20226585886451
C         0.60224096609754    5.63868689772458    6.62556815280756
C        -0.98466481453267    6.44567526142957    4.86492373880660
C        -1.68801079608859    6.40903939633140    7.27259436001187
C        -0.13512228340157    2.70894513389329   10.66957846320815
C         1.36211676795988    2.99814069161759   10.72136427434227
C        -0.80139908854498    3.18068065018787   11.95703515149229
C        -0.39766846465217    1.23274067938562   10.42117641048841
C         0.62084838345394    0.80496868400249    6.14490554363226
C         1.52054584454100    1.83363621984752    6.81148463268177
C         0.33673995527722    1.16909980903126    4.69520661228907
C         1.20374084195975   -0.59810835008219    6.25777603641461
H        -4.88657041076207    5.78469818393272    6.76895292255803
H        -3.92066801904378    4.99836312747927    5.50189848973561
H        -5.62093695126924    4.57951220925826    5.70381161885025
H        -3.45756992633898    5.05712113662772   10.14460695044198
H        -4.38243942517073    5.90350462529841    8.90609388270078
H        -5.21537080532887    4.87439118474388   10.07845152266626
H        -5.28596347935657    1.92338655018672   10.62707888949510
H        -3.73718040064514    1.08554556635800   10.69704601357015
H        -3.84659961623159    2.79452152757928   11.15225612162198
H        -5.32654316082609   -0.16614285911746    7.98002171876031
H        -3.81342469844446   -0.40389204305071    7.09209367735677
H        -3.79849285339174   -0.34430383133898    8.85215981616845
H        -5.53788932414801    1.92811679182498    5.13349859864753
H        -3.96244868405064    2.56716909466950    4.63794001754250
H        -4.09877689130366    0.90149111199825    5.21266817229385
H         0.68561953545466    5.11508237011548    7.57663163702906
H         1.18783800618578    5.11276167914946    5.87367312737689
H         1.01216806135439    6.64031449025101    6.74667540216740
H        -0.60865293990299    7.46336519428290    4.95563597391812
H        -0.41243223817400    5.92717121110338    4.09899353401572
H        -2.02375067257114    6.48493711560569    4.54527596048800
H        -1.72283965386691    5.79671377494932    8.17194428138611
H        -1.23493045385954    7.36642596548246    7.52542889996311
H        -2.69967021482162    6.58879288718729    6.92138500188041
H         1.83015715185221    2.42105376255471   11.51755119018198
H         1.83495454731638    2.73973667478637    9.77583771045145
H         1.53248062931838    4.05632604685202   10.90721278884756
H        -0.34723060980369    2.68901063345086   12.81641417818087
H        -0.68239903033658    4.25654722451447   12.06756324447069
H        -1.86366717807633    2.94943949388415   11.94841723459039
H        -1.45547403491699    1.05934454961954   10.20680389228886
H         0.18481283761691    0.87535629932656    9.57195655311739
H        -0.11944230201449    0.64990697453375   11.29907692120732
H         1.79700626839474    1.50535739752264    7.81360660938919
H         2.43243671389364    1.97040683290267    6.23175962066691
H         1.00142118565583    2.79254841087447    6.88480004140988
H        -0.16068316823011    2.13749381817336    4.64158555316579
H         1.26708208945978    1.21955827514660    4.13159735362136
H        -0.30988679006009    0.42270674757316    4.23764149925980
H         0.53090288174346   -1.32442021407576    5.80720979702157
H         2.16387336115977   -0.64541641106202    5.74648836686556
H         1.34985856995773   -0.87013885145651    7.30163596695473

