72
CSD_code = NOWGAJ | q = 0 | S = 0 | Stoichiometry = C33H32BClNO2PRu | MND = 9
Ru        9.35508639388951    2.87871863912306    5.64521131986189
P         8.28379421987052    3.01836518979290    3.65001530852181
Cl        9.21043829886261    0.50157420210981    5.46519052151500
O         9.52199330973718    4.97496891366730    8.59950220913309
N         5.97029033779598    4.03033781451561    7.97233180593360
C         6.38702275818697    1.07660587898286    4.11473359884948
H         6.40941522772776    1.49366166861830    5.11471429679717
C         7.16439402541469    4.42075223077749    3.29125343732894
C         9.48627231278682    3.10072879507494    2.28450934602486
C         7.23574139904500    1.61034846599919    3.14838601937376
C         7.19332948657317    2.13769210089684    7.69438427396943
C         6.87950803076822    4.28048229169526    6.87754327092624
H         7.55434930524614    5.10192815616628    7.14107906362727
H         6.33422329288478    4.55918668129720    5.97062134494692
C         7.66643716689351    3.00470844708238    6.71922492193299
C        10.37892294762873    2.03129300279556    2.21100626391285
H        10.27656372198345    1.21302805311453    2.91451848274983
C         9.60593407470184    4.15981790495468    1.39403748130937
H         8.91756666615415    4.99181858797244    1.44448617713541
C         6.80784894070720    6.80267475853923    3.40583766583270
H         7.16082432498547    7.78883821785954    3.67127235616402
C         4.34138131564110    4.47356034330604    9.59825126217417
H         3.62434592466143    5.14431788072428   10.03995985813983
C        10.92406677466495    4.45636460060404    5.11374219036941
H        11.06687403946220    5.01488289244518    4.18714652035247
C         7.23695765732590    1.07853276143848    1.86404179566453
H         7.88956476149185    1.48989501231826    1.10655148883311
C         7.60314079354487    5.69662699584975    3.63732853417040
H         8.57673923671116    5.80386634148334    4.09341900127598
C        10.60865837302188    4.14439134613774    0.43830979649066
H        10.70103072535217    4.97000102937463   -0.25284971360568
C         9.33645273756422    4.34630142721762    9.84396711091458
H        10.30700365004552    4.21892066661036   10.34363042377039
H         8.89454408695381    3.35003414945897    9.70125037706877
C         5.44311582157373    2.32926652124899    9.57192423886651
H         5.62518685330786    1.33557774111804    9.94643716319417
C         5.10784789804527    5.37824775506251    2.49467408025413
H         4.13154983265459    5.25214378454709    2.04953919010785
C         4.53377382860240    3.17577364569334   10.13523435862664
H         3.95425243015099    2.87102064300559   10.99238924472528
C         5.07873556520665    4.86664129100738    8.51952919398131
H         4.98618636569846    5.84335587426753    8.06753540453145
C         5.90597060359334    4.26910899366140    2.71973903186917
H         5.55068865978294    3.28542144910433    2.44992691285987
C         6.18549507777402    2.76484707857943    8.45702294916087
C        10.74735214186108    2.91654956577793    7.53621445471367
H        10.75989077326454    2.26434108152952    8.40825912009046
C        11.37195858250477    2.01852625097606    1.25183617255863
H        12.05878887723865    1.18650321186241    1.19525768063440
C         6.40367244240924    0.01630689731980    1.55757855775141
H         6.41219610660021   -0.39894656346535    0.56004821503813
C         5.55492477523324    6.64416327610470    2.83369662109716
H         4.92895689323957    7.50580021329779    2.65385612178249
C        11.47765658888264    2.46641980846376    6.43268314719628
H        12.01085689075598    1.51769867291510    6.48525165172943
B        10.16612616507289    4.34445767602759    7.55487997829936
C        11.56602846506017    3.20317210806901    5.22968151881190
H        12.22134607183622    2.86054899756679    4.43408635648244
C         8.41853013015244    5.19854253006620   10.71186629029936
H         8.29051229780985    4.73149686592088   11.68469775699309
H         7.44313205266945    5.30485905747272   10.24193768682420
H         8.84756780114774    6.18846304130062   10.84507269047976
C         5.55787392877631    0.01659299652871    3.80321877103277
H         4.91146617463318   -0.40219708883097    4.56012083156534
C         5.56739051580934   -0.51656699887455    2.52362501890125
H         4.92635428586407   -1.35137655296065    2.28081955581202
C        11.49014027643506    3.07939713236716    0.36561169314989
H        12.27094978688282    3.07516979600727   -0.38084789306436
C        10.17300156149111    5.00467788648031    6.16428262878357
H         9.76069584925830    5.99863327407660    5.99876582369942
O         7.57660694540417    0.87002016870160    7.95687218523011
H         8.19530436499744    0.58021646973059    7.24436778434652

