73
CSD_code = NOWGEN | q = 0 | S = 0 | Stoichiometry = C37H30BClNOPRu | MND = 9
Ru        1.39648633805178    9.05926968123708    8.14951599707376
P         1.87214356622708    9.93970662210505   10.18759048461158
Cl        1.83097890544179   11.16846102567133    7.16897943830759
C         0.53013902947233    6.97037123844170    8.62786734195028
H         0.79774556132535    6.25859341305986    9.40527938829409
C         0.55452677751850    8.02938833029042    6.26441880153570
H         0.86290070856150    8.12194909431383    5.22433646549957
O         2.36988800108971    6.30693511709149    6.90527839662565
N         5.12234604410254    8.24950510947266    6.41711049084441
C         3.62375094728370   10.26481518274432   10.57789765454436
C         5.33034469090848    5.92601061122207    5.94622990800364
H         4.94813836257284    4.92507972512901    6.06049321022723
C        -0.45607753440857    8.88863129833224    6.70164808227333
H        -0.90626326999113    9.60355348197078    6.01457540244467
C         6.23036641230810    8.52577342375412    5.70138633991180
H         6.52885541291847    9.56043260595671    5.64142634430238
C         3.46134604248732    6.99482376392506    7.44297257597777
C         1.15236226136370   11.55533414637677   10.63778712931411
C        -0.92157351909121    8.86992755739942    8.03436591333357
H        -1.74676133130045    9.51746690429933    8.31671749209457
C         4.28030078836691    9.13004132497934    7.05342846590143
H         4.46998378097826   10.18556520612792    6.98396161633467
C         6.91252105622383    7.50773072976352    5.07522543120110
H         7.79197932499936    7.74225406921618    4.49715302139799
C        -0.11798357601042    8.32783830342099   13.40635926047661
H        -0.90631666586749    8.60563472973212   14.09115662050550
C         1.60141412893565   12.24169421063767   11.76353203368837
H         2.40064065404191   11.82450757784923   12.36125321641433
C         3.93570936163738    6.39058940738384    8.77068280028976
C         4.67681457040555    6.96652968062271    6.54532057603917
C         6.46866777036814    6.19456288006860    5.18400314345293
H         6.99334512733839    5.39558493822160    4.68700382067083
C        -0.46983395445042    7.89482697526178    8.95238227235625
H        -0.95009972347437    7.85855484978203    9.93058159353942
C         4.26744324814132   11.13407214351875    9.69871529091652
H         3.69843004126460   11.55251423313556    8.87732016518243
C         1.31697372734468    8.87856854122368   11.56036530566546
C         1.46423658133942    6.71262634738944   12.60327056444499
H         1.91543513372883    5.73234991650285   12.65823928210850
C         4.32122240810543    9.72806590763273   11.65241135765896
H         3.82731014245398    9.06627565559253   12.34926863018086
C         3.21876694118616    8.49977343162213    7.63338900546641
C         1.88340564183720    7.60747380392284   11.63786316913692
H         2.65258058874489    7.33638959003098   10.92790817192821
C         0.12663224374536   12.08845937433047    9.86852492006731
H        -0.19831040250342   11.55918480160519    8.98242422738069
C         0.30353281045912    9.23032286006901   12.44418327825268
H        -0.15619834008693   10.20654009025289   12.37845389494914
C         4.87474672002248    7.04502893271111    9.55958138241152
H         5.26022841713901    8.01009369531527    9.26359426109190
C         3.87615808114275    4.58744791890192   10.35757300307600
H         3.48564464258140    3.62734256217237   10.66311728526462
C         3.44987893876659    5.15403675954918    9.16928007369849
H         2.73213511209616    4.65074184964951    8.53921433107995
C         5.30354464689115    6.47134937179639   10.74353754796086
H         6.02788976848831    6.99095709709281   11.35282156586403
C         0.00164265441427   13.97844263034670   11.33783230297924
H        -0.44255825978380   14.92497889169123   11.60957163427252
C         0.46136094761801    7.07270628398692   13.49066668200417
H         0.12710762004941    6.37290060822911   14.24256445144900
C        -0.44578194924591   13.29897230685591   10.21750414441510
H        -1.23731309596283   13.71574724236703    9.61226507762536
C         4.80304883473841    5.24492425926884   11.14827551029069
H         5.13667400673607    4.80323821985998   12.07587840230789
B         1.13671200727007    6.98003904796699    7.22366435525964
C         1.02466048710550   13.44882933710023   12.10965715297048
H         1.37417051803915   13.98134285971003   12.98251820085859
C         5.65703860249941   10.04707930510109   11.83281371680142
H         6.19765907400830    9.63081699833139   12.67120262189053
C         5.60024150578326   11.44672188236039    9.88513649449804
H         6.09767494147635   12.12157336410422    9.20365076597318
C         6.29915560051901   10.89860851623000   10.95031922651747
H         7.34233336151438   11.13962014661019   11.09590181665990

