59
CSD_code = NOWHEO | q = 0 | S = 0 | Stoichiometry = C26H23N3O6Zn | MND = 6
Zn        8.51631535181532   -4.10787984678541   12.31031344260579
N         6.93782776544759   -4.48547708486744   13.57435767820693
C         7.15982716328498   -5.58099148564306   14.30386055113036
C         6.12464346377592   -6.49104503673814   14.58240904438428
H         6.34256716857997   -7.38745615259131   15.14146380718594
C         4.85780071997528   -6.23019215292635   14.11723989961390
H         4.05209253097725   -6.92309870689035   14.30744010846334
C         4.62819112447375   -5.05584659266767   13.40281593519796
H         3.64400140581492   -4.80796214925483   13.04051834622551
C         5.69952706834559   -4.22656472096060   13.15538216682980
H         5.59556579115845   -3.30794337987715   12.59602638420496
N         8.39522926381280   -5.84092401223017   14.83190408538173
C         9.57875369006075   -5.16338628345977   14.69917997599249
N         9.65810881170290   -4.03050513273597   13.99947096291600
C        10.80427349206705   -3.34875124124421   14.00417812099028
H        10.79157110240601   -2.42557488303110   13.44223349372815
C        11.93219229831820   -3.76829154715810   14.67297018666599
H        12.83396549695361   -3.17852559087921   14.65366628166438
C        11.87985926748721   -4.98484125696857   15.35151682846020
H        12.75302673246164   -5.36902877701604   15.85730464847212
C        10.69751089005659   -5.68488859272310   15.37255579539834
H        10.61487339107641   -6.63237372370244   15.88077453088974
O         8.79268365396366   -6.03340441485954   12.13920515086494
O         8.92426964855722   -8.36052496748963   13.87379833675379
O         7.25290058876028   -4.78283044129039   10.47041844646073
C         7.70352344885054   -8.12976574788020   11.81984941244985
C         7.90036880440947   -6.74613907437703   11.55700054975253
C         7.05025317950124   -6.14158769338811   10.57427437762411
C         6.13946196800887   -6.87084161047454    9.85826875797218
H         5.50978443263385   -6.40608248928942    9.11529078427955
C         6.02403918860948   -8.25019352237947   10.07769280485669
H         5.31921753029408   -8.81883413527421    9.49153713553785
C         6.78810049905988   -8.85698106746338   11.03449527287045
H         6.67817329567727   -9.91521324462962   11.22530932476113
C         8.35027036911893   -8.82524525913425   12.90355255747573
H         8.23628145338733   -9.92777050131277   12.83097897225582
C         6.41440108244937   -4.05417197678788    9.60485060999370
H         6.57249094080317   -4.35379791603135    8.56362260423805
H         6.68870819978966   -3.00799804042608    9.72526393414569
H         5.36016287496984   -4.18872839715826    9.86890785416489
O         7.19048050480443    1.16411540983275   10.06589199006357
O         8.21875411253708   -2.36913961826431   11.73076647968374
O        10.27091660691493   -3.83086448831774   11.00083871211967
C         8.70220850161448   -0.66841596196269   10.13973009289094
C         8.96845687568730   -1.90210446671030   10.77816508179751
C        10.09598691903484   -2.63993088208941   10.32013653459140
C        10.89735567227272   -2.17651663599452    9.30491173010422
H        11.74949860447129   -2.74733271284711    8.96769573725050
C        10.61475037905340   -0.95114840427868    8.69461628713992
H        11.25309468235230   -0.59857482626302    7.89940596461983
C         9.53432062299136   -0.21504360875346    9.10750587314607
H         9.29079070717466    0.73240863692894    8.65087087461196
C         7.55311313065232    0.11656883187291   10.55565305010674
H         6.99871344804138   -0.33980979984238   11.39774373528107
C        11.19978671012117   -4.75923556739112   10.49481748024073
H        11.01340083425677   -4.97159764968903    9.43749293770633
H        11.05840676828721   -5.66856115125368   11.07630724046392
H        12.22551345206981   -4.39555169715751   10.62135947662378
H         8.53653631883780   -6.82700655778274   15.04999156046324

