140
CSD_code = NOWKEP | q = 1 | S = 0 | Stoichiometry = C62H68ClN4NiP4(1+) | MND = 5
Ni        6.19987153040013    5.53547484794655    3.23865310319786
Cl        5.23122258010117    3.56039816866247    3.65314161110918
P         2.07083838374774    6.81295792826292    5.20231513394915
P         4.02774938299355    5.44593831108023   -0.96877527183572
P         9.38848874778700    2.43086379203747    1.58344504655143
P         8.07313625952374    5.40629197561336    7.66096560162717
N         4.62296631294622    6.64385206830352    3.99730366869328
C         3.78843712389631    6.92665329554007    2.80697687550439
C         4.58855298108649    7.31406316898224    1.57447484536224
N         5.57580321839254    6.27566277286314    1.25669555843911
C         6.58652647015041    6.81614546617257    0.34872335815544
C         7.79426521195560    5.90522458062472    0.15691646432785
C         8.54105033957870    5.59131269750061    1.45386075410409
N         7.89244262977801    4.67990429398883    2.41984584210111
C         8.79245298584751    4.52039619179483    3.58433921159070
C         8.83032846985187    5.73108673627372    4.50428297272544
C         7.41821729331190    7.43847745765085    5.43014077745199
N         7.47679044651849    6.04930980042595    4.97458819624377
C         6.00955729773062    7.92321271384926    5.74977740556427
C         5.07771235397819    7.94071479996956    4.53982503172858
C         0.96558052187510    5.83518468945977    4.10161661685628
C         1.27225780284676    4.66888370388096    3.40778335990134
C         0.32187737810680    4.07881398475829    2.59213995383519
C        -0.93969826612954    4.63348870147385    2.46539360457408
C        -1.25800362776686    5.78613396084594    3.16435672149945
C        -0.30803054045620    6.38494618378878    3.96907957310113
C         1.62553555340236    6.00984496152335    6.79088804022556
C         1.53095193004548    4.62872311437852    6.93117826566813
C         1.13384310470903    4.08668856179398    8.13902849775847
C         0.81913733104095    4.91320879136293    9.20743529472631
C         0.91203285617266    6.28817558955209    9.07111286535177
C         1.31661987687558    6.83511678344809    7.86652360960541
C         2.81053431338337    4.07175097687375   -0.93644580771060
C         1.80532023022479    4.17591532476979   -1.89547017499484
C         0.82265095148738    3.21026047565693   -1.99826360801440
C         0.83109686411547    2.12594077956754   -1.13661323850029
C         1.82509538755053    2.01648784667907   -0.17931468564530
C         2.81217866817995    2.98169518184853   -0.07197684241530
C         5.28044999147526    4.68196738078577   -2.08226422160292
C         5.68247538372964    3.35542936612759   -1.95942749421368
C         6.65175494035921    2.84545062714161   -2.80261213359296
C         7.22419402685258    3.65019929019841   -3.77520486924417
C         6.81612318037212    4.96597269078113   -3.91365043011211
C         5.84583715004038    5.47906324222397   -3.07128544922981
C         8.83594030277561    1.31796557758264    0.23199292158103
C         7.70152274133809    0.51959575113598    0.34745591496065
C         7.35684668588428   -0.33729026213272   -0.68034036329729
C         8.14266100321489   -0.41275064241461   -1.82091825719567
C         9.27244069291424    0.37946331422276   -1.93866867461810
C         9.61679030990148    1.24527163153781   -0.91541013652366
C         9.35855944748176    1.17032058246547    2.92296861121439
C        10.48541646557637    0.34908888979698    2.92599035259321
C        10.61501944208024   -0.67138363233242    3.84712258901068
C         9.61851707235049   -0.87975669621158    4.78711157043190
C         8.50206600586927   -0.06192554176759    4.79825290752548
C         8.36830039712044    0.96244383344816    3.87583648003364
C         8.29001298535054    3.66521930057463    8.17795474251469
C         8.99849343149191    2.80243728815245    7.34355263119930
C         9.29103418228096    1.51540567594826    7.75156635341083
C         8.89182729923394    1.07761235166189    9.00377116471250
C         8.21872737945963    1.94033624075440    9.85267301035442
C         7.93120012190584    3.23191732448593    9.45090057431673
C         6.62970715304630    5.90718847582695    8.67908679720387
C         6.68388074081393    7.12102401390758    9.35352396838966
C         5.59365059868620    7.56402192323312   10.08330506373914
C         4.44519981472289    6.79386678652675   10.14486620135181
C         4.38949977972050    5.57572213620907    9.48450212292510
C         5.47332493695513    5.13247856413510    8.75178270583145
C         3.75792667553430    5.98706612898801    4.98466701114300
C         4.89265461849581    5.11603628556695    0.67688332647064
C         7.75271066821722    3.35276316938913    1.80918652273937
C         7.11092770294674    5.12106298966117    6.04772637922301
H         3.08241176063409    7.73559022679177    3.04346786076976
H         3.19744620672041    6.03577932028033    2.59222035229107
H         5.10860172712465    8.26113058174469    1.73453558689314
H         3.89658942466962    7.45190108113818    0.73001093147614
H         6.12906564419765    7.01422342008395   -0.63254072691349
H         6.93603881002141    7.76894574540000    0.75863901498739
H         8.49719351367741    6.43546921326572   -0.48873559982446
H         7.51212751761417    5.00099553849509   -0.38033057318639
H         9.50128933560067    5.12900496277815    1.17687653802113
H         8.75043410054094    6.53851518224049    1.95669429844874
H         8.44726475298261    3.64602638958980    4.13916323697178
H         9.81120484835047    4.30696995938957    3.22925889107707
H         9.24359837876146    6.59603018656880    3.98126728485109
H         9.48866901419966    5.51870087169587    5.36067707124531
H         7.83457034925494    8.07367831480873    4.64202799935524
H         8.04420448372496    7.55405283146700    6.32940076434554
H         6.09411763822135    8.95611359406054    6.09340436030621
H         5.58789355929396    7.35767692411622    6.57935710359100
H         4.17297742387021    8.49866553939722    4.82716190056183
H         5.57866459581884    8.49281398582066    3.74115852642665
H         4.21872803485771    6.01775937792665    5.97296494272388
H         3.61830691647746    4.93660952170401    4.71883459957029
H         4.12384823864048    4.78241298317877    1.37667806350560
H         5.59766170140020    4.29612675640795    0.54365963847110
H         7.33611150964974    3.43818288747516    0.80606787900511
H         7.06559246133538    2.74698840804193    2.40434970263287
H         7.28481822786805    4.09544897115534    5.71801138425474
H         6.04689294304079    5.21002648529949    6.26474017915245
H         2.23748937244208    4.18878691642990    3.49161262778222
H         0.57373885580905    3.17906513645812    2.05052327758865
H        -1.67203851906366    4.16655590771134    1.82487283607536
H        -2.24190327087247    6.22127572579261    3.07644668498790
H        -0.54575830638646    7.29183184014901    4.51023154146505
H         1.75385464539640    3.97906316700494    6.09710779086041
H         1.06013483548952    3.01447972074018    8.24604020409380
H         0.49748169583046    4.48353230347453   10.14439534018705
H         0.66162710080519    6.93358183663616    9.89972309031975
H         1.38475549714101    7.90811129562097    7.74954210007681
H         1.80320641753497    5.02747900570492   -2.56324809230623
H         0.05036829581057    3.30358445327837   -2.74673936788124
H         0.06552589966811    1.36841856959861   -1.21029858858109
H         1.83816202575373    1.16953084256948    0.49183521902169
H         3.56731018593482    2.86123944207824    0.69089093533030
H         5.22819044627596    2.71313401703569   -1.21711079090960
H         6.95837542842565    1.81522183995919   -2.70209402768013
H         7.97967329534035    3.24561423241788   -4.43120833190080
H         7.24918286203073    5.59090966913366   -4.68009342073375
H         5.51567987376517    6.50334671244533   -3.18187096086702
H         7.09829098271189    0.55793439503838    1.24359304205585
H         6.47700866683287   -0.95702534417045   -0.58953886233718
H         7.87445061470397   -1.09310360692385   -2.61533307142340
H         9.88688620984118    0.32024370809404   -2.82453448674249
H        10.49976421830188    1.86420694798559   -0.99815654755206
H        11.25884995759698    0.51750891757301    2.18731340487611
H        11.49013553174738   -1.30321017343657    3.83300635513427
H         9.71169504112524   -1.67778945893127    5.50818352018078
H         7.72201800734213   -0.21810490967168    5.52882399626659
H         7.47299876690131    1.56622432140867    3.91913486029591
H         9.33792180731282    3.13864350298767    6.37188399766712
H         9.83910173940929    0.85826695011444    7.09283246612319
H         9.11874140948344    0.07177584106770    9.32260438077302
H         7.92353893844501    1.61003930846163   10.83735953181096
H         7.42487536917009    3.90502632104060   10.12801384726994
H         7.58647497005036    7.71481622306649    9.30606115080841
H         5.64308591047176    8.50786907465680   10.60501462524115
H         3.59325409374627    7.13477261473174   10.71272006118826
H         3.49821682011221    4.96951439838947    9.54156116475591
H         5.42762750566972    4.17580433766796    8.24813115987433

