55
CSD_code = NOWKUF | q = 1 | S = 0 | Stoichiometry = C22H28CuSe4(1+) | MND = 4
Se        5.12602411586682    4.26985979595785    2.67604752736319
Se        6.96401788029398    1.62777017811772    4.80025594278264
Se        4.47319974484409    4.23772381839848    6.80701118156096
Se        2.68715440377227    1.58621877560028    4.65037621566454
Cu        4.81379716497668    2.81116294627998    4.73302071674278
C         6.90898518205307    5.02654284659108    3.07403845791759
C         7.60691271829024    4.51030175083029    4.32222772063872
C         8.17957282141838    3.10035315434127    4.23517320039262
C         6.79076203819684    0.54035992685114    3.12769074106458
C         5.40749802973396    0.50574198785978    2.57599151375711
C         4.61897533193180   -0.61414758587916    2.84089951206993
C         3.34459406675022   -0.73938548688137    2.32072252017945
C         2.82600831389197    0.27034413727386    1.52447445890250
C         3.58777997453622    1.39351240820952    1.26733312261636
C         4.87839333221484    1.52861053386254    1.77823461587202
C         5.63418947866885    2.76891376636497    1.45260331945098
C         2.67575997599114    4.96385297373201    6.41697699036576
C         1.98889836121277    4.44994858713697    5.16170893678970
C         1.44302024488959    3.02846231652900    5.23083485665100
C         2.87988214804333    0.48320058556104    6.31051855974330
C         4.26359439030826    0.46782320971356    6.86191540495295
C         5.07285491728876   -0.63387353879106    6.58368777164785
C         6.34953702665181   -0.74133447741055    7.10216813074738
C         6.84929285930514    0.26837382406606    7.91038234236317
C         6.06662608550396    1.37386604810463    8.18104827036263
C         4.77360276420070    1.49087958057839    7.67179266279647
C         3.99459942409933    2.71265235320874    8.01248504641184
H         7.51118603396888    4.87217789431243    2.17636172847136
H         6.71653082118812    6.09648530776184    3.18299000742851
H         8.44094451893971    5.19129154916289    4.51654902921791
H         6.93124287702682    4.58266299522816    5.18453653471012
H         9.01884628930517    3.00774370389943    4.92845792189548
H         8.53602911403789    2.86214542556167    3.23173085663440
H         7.52896724882908    0.94280463982661    2.43315723366666
H         7.10244325446314   -0.45982135680577    3.43519936187300
H         5.03450305170228   -1.41010235907632    3.44173647408158
H         2.76361957380683   -1.62593479852909    2.52251928807821
H         1.83698551028116    0.17974558364139    1.10380757045265
H         3.19033794939763    2.18587502934721    0.64843817400084
H         5.38958230433338    3.12385824893336    0.44992940274568
H         6.71275843969543    2.66357695275123    1.55198827046329
H         2.07613093842433    4.78620576540276    7.31206339972810
H         2.84709980749927    6.03868173702450    6.32180879307416
H         1.14235798376239    5.11739394724963    4.97464188824327
H         2.66394745611468    4.54556696259037    4.30117262141868
H         0.60683360005347    2.92823222902527    4.53487816701229
H         1.08951813942151    2.77143961248120    6.23067358452556
H         2.13442891147021    0.86428703464295    7.00932793809457
H         2.58653900498932   -0.51897297152977    5.99166591155624
H         4.67211444888001   -1.43030734586723    5.97350660181050
H         6.94695906247927   -1.61438805689039    6.88981602208003
H         7.83994926409943    0.19131112122015    8.32990314270060
H         6.44929536439184    2.16600108121198    8.80946435351566
H         4.23306881245499    3.06014531233745    9.01924183701015
H         2.91814742415536    2.58806033878642    7.91231414571336

