56
CSD_code = NOWLAO | q = 0 | S = 0 | Stoichiometry = C20H19B10CoF6 | MND = 11
Co        4.59196538902722    6.49395712080183    9.09516572542187
C         2.60004574278963    6.75636336494998    9.16289657688386
B         3.01573755208761    6.25293659949479    7.72476618012161
H         2.63839698809637    5.17085966743243    7.45004646444461
B         2.74102165167815    8.18472317289370    9.74808464123497
H         2.22783433692961    8.39239780810878   10.78591287262947
B         1.98774289024123    7.96359331565624    7.97558841924179
H         0.82058444333809    7.95232716947702    7.89860179778461
C         4.46533273149486    6.81325967685965    7.03837627711533
B         4.46000663442731    8.65789360347320    9.29196865170705
H         5.07837997689803    9.03330325234982   10.21882252041932
B         2.98378579836041    9.46452093508675    8.65884639848715
H         2.55385396218211   10.47341097021632    9.08363938262792
B         2.95652502418090    7.46762744904075    6.46603117871106
H         2.49495661108777    7.06834013060221    5.46282268851675
B         5.33092680366494    7.98165673633644    7.89905525983386
H         6.50772506024697    7.96286475442766    7.89024766505591
B         2.91927929711406    9.13763441486964    6.94195596058945
H         2.33090026027851    9.89492300522518    6.26299040454223
B         4.44863504530188    8.38662278154952    6.39398886235597
H         5.00457280279062    8.54311245989650    5.37274548482754
B         4.48229351735880    9.51769650427955    7.73537169369609
H         5.05991868152869   10.53576244507172    7.64371293815530
C         1.89218160880449    5.75418727175080    9.98017892270714
C         2.70594216948009    4.82078881048790   10.64573812466348
C         2.15676546420417    3.81799832333537   11.42252399414250
F         2.98173423893660    2.95251664653952   12.02318864984611
C         0.77601265747946    3.70251823525948   11.58205183423015
F        -1.35702488620458    4.56924944785300   11.07653663406891
C        -0.03079033824307    4.64348468177708   10.94080771351068
F        -0.32360967993953    6.51878445521262    9.56682572108608
C         0.51371887890217    5.65226130070568   10.15827442148968
C         0.11161181897363    2.63074424714900   12.40358857195971
F        -0.73882505324345    1.89714680018400   11.66561393615765
F        -0.60906563499881    3.15134887327751   13.41091287229164
F         0.96500396499367    1.76919751855006   12.95781816522245
C         4.15478806158552    5.01542158934402   10.45207604894502
C         4.90597253664328    6.06439454070931   11.06455572338371
H         4.59570402732753    6.63218757196255   11.92474009159722
C         6.17432866690189    6.08738669652478   10.45064894319856
H         7.01324142802971    6.69102661757064   10.75128218337946
C         6.19943422132986    5.06819193511851    9.46830734481076
H         7.05381523169688    4.78679098698151    8.87630518149154
C         4.97035207405364    4.38024110289974    9.49655891864442
H         4.71002561003393    3.51414403016285    8.91374283119004
C         5.16466386356261    5.78281620801867    6.20932157926183
C         4.45439737466906    4.89684237347280    5.39535661407729
H         3.37941043799838    4.94686721138280    5.35020992767196
C         5.09829058274651    3.94939449519186    4.62116583154516
H         4.51419554986161    3.28110120690807    4.00577002503173
C         6.47828360148650    3.85352385142075    4.63049360141487
H         6.98118358533172    3.11010200531104    4.03113688692319
C         7.20300694296467    4.73348970070938    5.41475969693945
H         8.28214548065054    4.68567731120821    5.42459497138638
C         6.55765000160973    5.68219464206730    6.18546238284376
H         7.15633431126397    6.35789197285690    6.77251361048173

