55
CSD_code = NOWLIW | q = 0 | S = 0 | Stoichiometry = C9H26B19Co | MND = 10
Co        9.29108152597243    2.20351768677955    1.06006804626479
C        11.81979586347606    3.39352382950873    2.54105740545013
C        13.09642131664674    4.15975075605957    2.37187751869278
C        10.54757713008700    4.14204973288140    3.14925562948148
H        10.68394405246685    5.18854798445349    3.38893221770023
C        13.57661157999036    4.53788543438854    0.89000835328562
H        12.92207453677461    4.22111912633018    0.08869523046898
C         9.12311764028112    0.92326758603920   -0.60608100535124
H         9.77466860998617    0.12469025678959   -0.91743365592373
C         9.17029595908648    2.25549684830811   -1.07006752812093
H         9.86608124731887    2.64643879227047   -1.79396860856508
C         8.07132476861609    2.94672868704320   -0.52500175126286
H         7.78385046566113    3.95881640760107   -0.75522037978963
C         7.34515734526272    2.04429113030919    0.28019240504612
H         6.40500449082116    2.24829465964843    0.76312314104007
C         7.99120903317068    0.79102962729194    0.22409785106734
H         7.62873276466715   -0.12555457555674    0.65553821103993
B        10.47978984560281    3.73562631857819    1.50014508028538
H        10.62571866318913    4.62558842295762    0.74425029661984
B        13.02761137794669    5.82158326592061    1.86832204559610
H        11.97483736616830    6.28621047250660    1.63682681164600
B        11.28785547304552    2.19314645408700    1.42927513288643
H        12.00640096167817    1.94237828663747    0.52908032407544
B        13.60732141458319    5.38782703297227    3.46150025207518
H        12.93839995637927    5.62303217264900    4.40061171524704
B        11.81232376074463    1.75420564929899    3.04721399039808
H        12.83818651256659    1.20571107612523    3.19892102467953
B        14.47588425732870    3.85695062262508    3.35626286320864
H        14.37644120490107    3.07202138402498    4.22297181415205
B        11.33155261410229    3.01128111251269    4.16610771070341
H        11.99029911591319    3.42774036686596    5.03915393155188
B        14.44425617171331    3.30729901967641    1.69293199205065
H        14.26799372841853    2.20248288871900    1.35005970776357
B         9.06005352008661    3.58675204090340    2.52561568704960
H         8.21145516741811    4.39748010299669    2.42499673992925
B        14.40497810215224    6.02621050080459    0.79616322955831
H        14.25759795127172    6.67427499611332   -0.17377238404057
B        14.47352591070724    6.59959299423378    2.47953510360042
H        14.46680618608935    7.74223731491028    2.75866096992422
B        10.34189947594827    1.03560002606300    2.37876855395169
H        10.31749415715087   -0.11088270641900    2.11344755252390
B        15.38299407600135    5.38167556891125    3.41299749461726
H        16.01814614952054    5.67843991593598    4.35732481740075
B        10.36508782636769    1.56006647753071    4.07299269039728
H        10.33015145860951    0.79486053357207    4.96370828749664
B        15.89538471286803    4.08208891230092    2.30345227529470
H        16.88659789030815    3.46957303584777    2.45767660345583
B         9.58256092817766    3.15927150208274    4.14486895072075
H         9.05364035929820    3.65396019706814    5.06986486447502
B        15.26819611137668    4.49353882322987    0.68977254053734
H        15.68673678917055    4.14352863450675   -0.35135075546226
B         8.94187793327441    1.91095602499757    3.06707237109445
H         7.91247362758546    1.39139594648991    3.30200000651598
B        15.88233646563921    5.78018328913599    1.74704107443722
H        16.87528444641096    6.36111735248075    1.50415555305914

