33
CSD_code = NOWMET | q = 0 | S = 0 | Stoichiometry = C7H16B9Co | MND = 10
Co        7.44911808679280    3.54397865911554   19.03320162677308
C         5.74477325816466    2.54812917424986   18.29572001198305
H         4.73491945647811    2.56360808470846   18.66917415143782
C         6.72627881274798    1.58462617251723   18.61125311929609
H         6.59569442626314    0.74384850814069   19.27193847004247
C         7.58297280577433    2.96663957616867   17.01091229166644
H         8.21869070907618    3.35662993265764   16.23427762192187
C         6.27218201578866    3.39914337059494   17.30174213888860
H         5.73408729879977    4.17459972187729   16.78453615440303
C         7.86126973526892    1.84328285015552   17.81840344710633
H         8.74849655429424    1.23445684192607   17.76777821814100
C         9.56348371571960    4.60289629948864   21.06972153342386
H        10.50979046576177    4.36829602125084   21.54133390659368
B         9.40411285177077    5.94320482672559   20.04404026642489
H        10.36203654481875    6.58257635331407   19.80771844310112
B         6.62554545666982    5.22200442280148   19.91474052031928
H         5.54298243258134    5.47641313640821   19.52679396329942
C         8.26617047511198    4.35465838821331   21.93398462886877
H         8.41907456583507    3.96816846747027   22.93410904786716
B         7.74757032198526    6.53930214578031   20.34176216896718
H         7.45226932339503    7.67119504515756   20.22344784931794
B         8.09752854253793    5.50367362356315   18.93410216693490
H         8.06186124369532    5.95865272984773   17.84832737933923
B         7.05229922359531    5.49314411962179   21.61077715554830
H         6.33789727550277    5.81248209890252   22.48815873949784
B         8.58211049171028    3.26471187781023   20.65370792519161
H         9.00947562996174    2.22094227966547   20.99518842773940
B         8.73860309220693    5.98973755345988   21.67148506930570
H         9.23702600896232    6.54511726303261   22.57904881052484
B         9.29930768135827    4.29669889070222   19.41848702379169
H        10.22864293632778    3.89905599113133   18.81227609445096
B         6.95186540766943    3.84750171977784   20.98231270916839
H         6.18336315337376    3.12452385376305   21.50753891866407

