33
CSD_code = NOWMIX | q = 0 | S = 0 | Stoichiometry = C7H16B9Co | MND = 10
C        -1.55067639937635    9.92126001637774    3.13263092167263
Co       -0.05505864033840    8.87937497296816    4.04041060708618
B        -0.13305160009902   10.76511247073041    3.37315437062755
B        -1.69954312291594   11.60177518174664    3.26593742383378
B        -2.89668848811546   10.55486977802935    3.98051395407829
B        -2.02979314974045    9.09970098963290    4.51671994811030
B         0.30531185118354   10.61396842010460    5.09039557407971
C        -0.58867376255316   11.94627976812861    4.49484372054604
B        -2.25414373692788   11.91094604234946    4.90827897885030
B        -2.48018256822256   10.33495260458489    5.69655016153831
B        -0.87752441360049    9.55192289003467    5.82327197573318
H        -2.58305908044929    8.06381969606674    4.41540036572600
H        -0.64900383118120    8.84792265950682    6.73921265368095
H         1.41335096150594   10.83691680130154    5.42231231745856
H         0.62383243945994   11.03734831440439    2.51333789013258
H        -3.96525319556961   10.44794548075021    3.50389669893175
H        -1.76734826300978    9.50370576090872    2.15240926369409
H        -3.30183730502028   10.15116542789484    6.51753084670231
H        -0.77569041557776   11.92223928667179    6.98466650241844
H        -2.80470161475794   12.92097532605438    5.14911983280966
H        -0.08443827357454   12.90377722015917    4.46408156179106
H        -1.85035368153477   12.30802521237475    2.34105157925842
B        -1.01931400287228   11.30759597712301    6.01243510623844
C         0.00367410771003    6.92826990908376    3.15282711165517
H        -0.78128349021898    6.35917763961748    2.68211961841714
C         0.36014443356374    6.87281221671487    4.51176987027523
H        -0.09440738622159    6.24869796122011    5.26181084419768
C         1.49861201188931    7.69491584153676    4.69268967218173
H         2.07544433410027    7.77973343080015    5.59848948459387
C         1.86603345898175    8.21826550042427    3.42865119157666
H         2.75077293539458    8.79487776109660    3.21718401380429
C         0.93534017449029    7.75505406013211    2.48415028744531
H         0.97560971359775    7.92449538146912    1.42024565085369

