32
CSD_code = NOWNEU | q = 0 | S = 0 | Stoichiometry = C13H11BrMnN3O3 | MND = 6
Mn       10.44296783028457   -0.59241040875755    4.79944019809735
Br        8.92728068890669   -0.07057887478884    2.87952982620177
N         7.84036074201462   -0.17930134769376    6.53882375406449
N         8.96727847769555    1.54974333652851    5.93662102522564
N        10.91128287389220    1.44747005262882    4.74274212622751
C         8.96149024133928    0.18114014020788    5.89767254102261
C         7.14829529418783    0.92911876399085    6.96086782144228
H         6.22007657999689    0.85290860911916    7.48919194061392
C         7.85185260259692    2.01977602538028    6.59082149565047
H         7.64447447702356    3.05864975759809    6.73589155577744
C         9.99250727028647    2.24220500493858    5.31411346145333
C        10.05724911725051    3.63090321470164    5.26871736861094
H         9.29150421559971    4.22937869441003    5.73361645938831
C        11.11554228646513    4.21897028716199    4.60388685292199
H        11.19205333093969    5.29317806725639    4.54275193261290
C        12.07042269902368    3.40146391072185    4.01498642178212
H        12.91028059841860    3.81835085832670    3.48423287865692
C        11.92898973075206    2.03035681487261    4.10951726241430
H        12.65803538907421    1.37307691554863    3.65429081878697
C         7.34603705773798   -1.52802013470466    6.68833802146734
H         6.80632112245641   -1.59123894475826    7.63736882242827
H         8.20424912526601   -2.20410496524624    6.72420720776576
C         6.43085552189838   -1.89822402466474    5.52487948743467
H         6.10598499485115   -2.92925244975649    5.62504488374197
H         6.96084357611189   -1.79164567292132    4.58134647799133
H         5.55545625863835   -1.25303308077579    5.50224392569017
C        11.50644141570157   -0.88790172133851    6.18299395108250
O        12.20146585108762   -1.10554058269199    7.07638101843984
C         9.90990760034310   -2.28974900177782    4.76207937894036
O         9.62546668835805   -3.40263636250096    4.67639252349522
C        11.70852992024332   -1.06645916647524    3.63119207921085
O        12.49569642155789   -1.42699371453998    2.87951648136053

