98
CSD_code = NOWQIB | q = 0 | S = 0 | Stoichiometry = C37H55BN2P2Pt | MND = 4
P         3.88648047165490   13.24518804779219    3.23861365916770
H         2.65285712556421   14.65346036319615    1.15033371518369
Pt        1.91148183368452   13.90378765105099    2.28919326683296
B         0.03750268737510    9.33361568241184    4.87126077033759
P        -0.06435701010574   14.67225365881282    1.46760851777917
C        -1.45466531869094    8.82833450522365    5.17791764309770
H        -1.56946817543318    7.94176424752124    5.79305668884667
C         1.29598496324910    8.68041041857663    5.61873397889600
C         2.48386246977179    8.41467670155842    4.93982708072333
H         2.53787329487725    8.60093930319644    3.87525511092184
C         3.59141576285072    7.88977877854165    5.58136471709261
H         4.49427603553418    7.68201835631866    5.02118155959087
C         3.54358495197420    7.61884981002991    6.93784436197453
H         4.40668396567341    7.20945589584910    7.44457832513114
C         2.37431534449386    7.86647889093743    7.63614656117617
H         2.32238783084178    7.64820100720258    8.69474802609594
C         1.27285635045846    8.38924882556508    6.98194823918547
H         0.36280758594943    8.56358301194572    7.54072879271665
C        -0.57094987759283    7.17274595744088    3.37472594151758
C        -0.69109908805090    6.82658904491926    2.02673875772330
H        -1.02269973679526    7.57476676760861    1.31691228948692
C        -0.40129213989770    5.55253824726387    1.57935676797789
H        -0.50694854074180    5.31422976029640    0.52910209131466
C         0.01883076719513    4.58035227046519    2.47081760818613
H         0.24352152549458    3.58126706039352    2.12507885252577
C         0.14793010737704    4.90547254559398    3.81126855551295
H         0.47937220541070    4.15534993496660    4.51674544018214
C        -0.13837415403383    6.18047613333673    4.25661324354924
H        -0.01444323309855    6.41250555474532    5.30319307067567
C        -2.58110675329977    9.74564421058946    5.32468668918657
C        -3.47815838103052    9.57497463446106    6.38638573271850
H        -3.35749151260456    8.72083197317315    7.03990653526219
C        -4.50638021040327   10.46583216285348    6.61757842634155
H        -5.18184777629073   10.30329808223919    7.44657877244050
C        -4.67920949509640   11.56458498969234    5.79161511690649
H        -5.48280114042272   12.26473054894091    5.96988010472432
C        -3.80965356526629   11.74854413565154    4.72939930599211
H        -3.93836110147242   12.60104761336845    4.07453646037262
C        -2.78024784897170   10.85832907126749    4.49990262605375
H        -2.11724409070628   11.02927376802943    3.66415369318120
C         0.28125499872059   10.88652942870620    4.66018448677605
N         0.21685645923831   11.82573012401062    5.61157956871616
C         0.64255031797391   13.02705311526309    5.09357629269837
H         0.65646671236312   13.91528919810616    5.69510334216667
C         0.98086132036024   12.84405278008744    3.78622212839398
N         0.73938503497316   11.50439503223475    3.55948385005482
C        -0.19386379000282   11.60739917722697    6.96859055202782
H        -0.50404266369169   12.55364189822411    7.41010335477961
H         0.62888984757964   11.18830538890633    7.55312505170003
H        -1.02792587076562   10.90719299268137    6.98589440238964
C         0.94620943016349   10.88268782586464    2.28018213775935
H         1.67207288267176   11.48382311955959    1.71171411855100
H         0.01194039063078   10.83292253667470    1.71552850653114
H         1.31211065102689    9.86621335646455    2.41282654768943
C         4.02328833352593   11.57721027543977    4.02249263773226
H         3.20216535486666   11.50088727136226    4.74014569036735
H         3.83577512424423   10.83342591369876    3.24324727990163
C         5.33821058973944   11.26715468004263    4.72532796980542
H         5.25180584139381   10.30388860495336    5.22479731014014
H         5.57092191260662   12.01705624509828    5.47765746859784
H         6.16467611046862   11.20903720821453    4.02142820443243
C         4.19854034186151   14.40185898262171    4.63640947552593
H         3.59743727865443   14.05108115471584    5.48010873723093
H         5.25205320953795   14.38741082645311    4.92717923336989
C         3.76008075804545   15.80526033445435    4.23059185722058
H         3.71753526481863   16.47065720316827    5.09078241425169
H         2.76523709655642   15.75122872514908    3.76797534193131
H         4.44609133656820   16.22881219184136    3.50040967062462
C         5.42573475173106   13.38562951939651    2.23674272120785
H         5.48288138316296   14.42424488990220    1.90080292397341
H         6.29990182783750   13.17484823776275    2.85749566618860
C         5.36119591413544   12.45936461564707    1.02976894265840
H         6.19832896474712   12.63856870643232    0.35848676225881
H         4.43479402466587   12.64096225412840    0.48342800121919
H         5.38375802012273   11.41513325397233    1.33468406526244
C        -0.17179586383252   14.64191040259844   -0.36945228893205
H        -1.17027510314395   14.92585730863087   -0.70940669039404
H         0.54072974074542   15.38699132844816   -0.73258303995745
C         0.22097472989750   13.26197881521078   -0.88228767763609
H         0.32883293999756   13.26337833956621   -1.96475325173658
H        -0.52475839907596   12.51633535256866   -0.61470921788971
H         1.17747576100901   12.97622770136378   -0.43700283492784
C        -1.60636403501856   13.81378855033343    2.01562482316683
H        -1.53243530096909   12.78806847410233    1.64277121295659
H        -1.56408568602912   13.75824212527039    3.10699689594103
C        -2.92597782796095   14.42976489834582    1.57122092103873
H        -3.74913128806371   13.79648707888830    1.89756796376401
H        -2.98459868023425   14.51537188641343    0.48865255289572
H        -3.06981923789043   15.41584091801084    2.00595295246855
C        -0.36681036605853   16.44473487566135    1.85337978762368
H         0.47760418597446   16.99719198098000    1.43158816324787
H        -1.28102396720870   16.78859793337802    1.36299546623685
C        -0.42501815245763   16.65677848111829    3.36142958607059
H        -0.42543452830003   17.71722163685643    3.60555584041733
H         0.44409430577023   16.19141622223723    3.82795647311123
H        -1.31945699640566   16.20595380703616    3.78591977373637
C        -0.84269498712620    8.54993252013138    3.79498177104739
H        -1.31613653356203    9.11634267149798    2.99670700695851

