75
CSD_code = NOWQEV | q = 0 | S = 0 | Stoichiometry = C38H30F2O2OsP2 | MND = 6
Os       -1.12246602234690    7.66186349377341    4.88155651640414
P        -2.37067061646599    8.10615738810421    2.89683125605223
F        -0.06754749634944    9.10555070187933    3.99224531772714
C        -2.16396525389120    6.32462820654806    5.67224996366136
O        -2.76898762197478    5.46508512160271    6.14481295030918
C        -3.97374345405732    7.24964690806242    2.72944413625002
C        -5.16019243069240    7.87386180112036    2.36421796711860
C        -6.32370695297850    7.13190230357063    2.24783950343425
C        -6.31059844063967    5.76838146586972    2.48781283689763
C        -5.12676817718826    5.13857720815812    2.84042442728975
C        -3.96510703296104    5.87618474099384    2.96150100493185
C        -1.57569322656412    7.68779749582267    1.30934434545031
C        -2.33415215201443    7.30444137392159    0.20717635053025
C        -1.71232953582442    7.00154558682665   -0.99072042868352
C        -0.33383984706129    7.08101071533666   -1.10131983649077
C         0.42444368728562    7.47034558913462   -0.00956530036931
C        -0.19128028599637    7.77164789690775    1.19175667143291
C        -2.76580658108459    9.86737272475258    2.73434807975732
C        -3.66235365933592   10.42958358730841    3.64084669306833
C        -3.94410416868962   11.78097295956777    3.58249465884820
C        -3.33321436926031   12.57777382698604    2.62703304275074
C        -2.43467035191652   12.02163121890837    1.73217135862757
C        -2.14474621343343   10.66965521548435    1.78438966870566
H        -5.17458194567118    8.93678544872935    2.16831015547400
H        -7.24433530263550    7.62228682437723    1.96651524532660
H        -7.22184661656639    5.19565136190676    2.39952580743208
H        -5.11277259195123    4.07469258035654    3.02478640380147
H        -3.03229851489532    5.39679563739791    3.23576405603257
H        -3.40995418156946    7.23967029508081    0.28595679500531
H        -2.30721777107839    6.70163121982417   -1.84117602240342
H         0.14747732912057    6.84082725875616   -2.03797049672737
H         1.49910659088450    7.53776487110519   -0.09334568508582
H         0.39780779788154    8.08693599409288    2.03967495153403
H        -4.11462440304587    9.80771145701123    4.40014696869070
H        -4.63407874072014   12.21707856862429    4.29017898613416
H        -3.55074018036707   13.63538904000607    2.58662912389610
H        -1.95004756860488   12.64477304485873    0.99435263191617
H        -1.43071151700587   10.24008696635386    1.09652590569101
P         0.12562525612817    8.10737653443892    6.86574170285691
C         1.72900467359918    7.25132852732589    7.03262557736429
C         2.91544487534063    7.87543354874183    7.39803599423113
C         4.07886543918838    7.13336860479853    7.51466321559718
C         4.06560643343156    5.76977883791029    7.27514047338176
C         2.88177195545701    5.14006737034512    6.92236455753813
C         1.72028840911141    5.87784982257624    6.80069729710178
H         0.78746410439184    5.39860394065648    6.52613601952658
H         2.86759091184201    4.07610891503536    6.73845845706579
H         4.97672872051113    5.19693359308487    7.36392300136504
H         4.99949149591073    7.62378200231875    7.79593319686224
H         2.93005222132190    8.93835662570669    7.59390140476095
C        -0.66792540102117    7.68856864919909    8.45386667444151
C         0.09173324449425    7.30538053620802    9.55527884968450
C        -0.52887701157670    7.00079800896444   10.75336634846024
C        -1.90737067442200    7.07866967976650   10.86502826390346
C        -2.66685447093631    7.46799330165796    9.77409685110886
C        -2.05235394938166    7.77063211709385    8.57246333771253
H        -2.64243206854803    8.08528029656233    7.72498136962727
H        -3.74153076106823    7.53420789135568    9.85875454853292
H        -2.38772574278642    6.83725139690769   11.80185815817030
H         0.06697175325237    6.70069708401062   11.60308801233729
H         1.16754221479161    7.24175253637563    9.47574232580295
C         0.52127113557329    9.86852558245899    7.02756168294412
C         1.42037281657545   10.42916610888632    6.12260626590354
C         1.70441436325061   11.78004408827288    6.18141166142003
C         1.09291240170523   12.57797268067056    7.13556346439779
C         0.19119195662282   12.02355208445028    8.02832088313958
C        -0.10076732902672   10.67200219823074    7.97584971858512
H        -0.81705874598580   10.24367241707986    8.66215667926967
H        -0.29390079025313   12.64769418734346    8.76498574207348
H         1.31267541805473   13.63509455187520    7.17671647286828
H         2.39680653403593   12.21481373732588    5.47525418250741
H         1.87278852295905    9.80644943187461    5.36407651282829
F        -2.17811950970510    9.10380011986383    5.77271832983943
C        -0.07990288386836    6.32830678307726    4.08611169054921
O         0.53182230077898    5.47238810908569    3.61555506554721

