88
CSD_code = NOWTAW | q = 0 | S = 0 | Stoichiometry = C45H35CuN2O3P2 | MND = 4
Cu        5.06155459257044    3.53831693533180   11.78586844443155
P         4.77987511838831    1.31173233534431   11.31646934383404
P         4.53348831115030    4.92231076067271   10.13424838057986
O         7.06108593528066    3.62017664618406   12.14386495417446
O         8.43668013862516    3.34325433463478   13.87446475122333
O         7.48240323152761    2.64800966585402   16.12341063984066
H         8.13312785760274    2.89262940344633   15.38098637506751
N         4.92218165829746    3.43844046719571   13.74838239934121
N         5.23371394524204    2.55319057313523   16.38355303097449
C         6.11202339192852    3.24392865588353   14.26750127851063
C         6.27530162205536    2.80598582719527   15.62368888437302
C         4.00967824911035    2.70929375117790   15.84224149116140
C         2.86603940763127    2.40293989867529   16.60467991540107
H         3.01182479564915    2.06042873503120   17.61668531913539
C         1.61854412283715    2.53097696960766   16.05577328794687
H         0.74428886621875    2.28832147509904   16.64205757356495
C         1.45315327400016    2.97103907027804   14.73353620410916
H         0.45893254405615    3.05523907640677   14.32045865109922
C         2.54340910075677    3.28860993099571   13.96922579659042
H         2.45055670831532    3.62089777643925   12.94384038102513
C         3.83320911208333    3.16195330293266   14.50730751066189
C         7.31127529965912    3.42745301934029   13.35957117126988
C         5.51305110095651    0.43199558421367   12.72434424126839
C         4.71094853499033    0.13208582613980   13.82571871084349
H         3.63926641930192    0.27635305327270   13.76538923098813
C         5.28422736004268   -0.33507315656887   14.99293964091938
H         4.65834347291688   -0.55977223804887   15.84380094199084
C         6.65918510687305   -0.48558713454970   15.08145375914189
H         7.10539642204155   -0.82507471562698   16.00332579695578
C         7.46031175637760   -0.17977811967664   13.99349859456433
H         8.53279454512738   -0.28139201665885   14.06482432364042
C         6.89411956513334    0.28200049957482   12.81905202176554
H         7.52243622720001    0.53626381036193   11.97690487676056
C         5.76339372694625    0.75147048622647    9.89030844132398
C         6.90428023897340    1.50410481308098    9.61504695068063
H         7.15224140232331    2.34555601668643   10.25089995258096
C         7.70206768301168    1.18173968140123    8.53423089762919
H         8.58756839652677    1.76381232038671    8.32647278731315
C         7.35822111251868    0.11965035517985    7.71340740320027
H         7.97795454471059   -0.13045427460514    6.86485314290175
C         6.21515916194330   -0.61714065665552    7.97486109472492
H         5.94412232511748   -1.44065042260310    7.32964924610949
C         5.41332125988721   -0.30466767639131    9.05844129968225
H         4.51623653033222   -0.87615444379609    9.24954845278942
C         3.16570690064207    0.49010660344764   11.11933810857980
C         2.07947440618412    1.29802358796031   10.79953950600167
H         2.23074417936823    2.36636375836790   10.69270863562100
C         0.82223443434085    0.74647422217698   10.63346211194260
H        -0.01678216643059    1.37981037511500   10.38451424894789
C         0.64326203588254   -0.61768407717264   10.79288274205564
H        -0.33705012201152   -1.05247763322680   10.66523947993878
C         1.71930783852835   -1.42617764367099   11.12571282892847
H         1.57492940646386   -2.48870113279158   11.25775792778385
C         2.97787120021691   -0.87831370018756   11.29232148836881
H         3.81542016287365   -1.50507212107298   11.56735372290377
C         5.37475145961501    6.53244267111540   10.11151611432838
C         4.83029052665963    7.66843156428963    9.52134523957155
H         3.85768524518103    7.62134675873523    9.05112969824266
C         5.54099157485281    8.85489073190362    9.54228758120912
H         5.12101035219588    9.73947155773737    9.08570925347803
C         6.78754667276463    8.91214344537563   10.14588903929342
H         7.33574802126722    9.84275197663593   10.15888872999528
C         7.32919339382781    7.78119638708498   10.73624989674543
H         8.29851956623813    7.82801825911097   11.20995387329356
C         6.62337517156622    6.59205211159248   10.72576002990828
H         7.02562395789515    5.70053351950805   11.18997458496683
C         2.78205854706831    5.38185256545247    9.94743960894368
C         2.15878019274821    5.83652623996429   11.10839372984406
H         2.74055380731377    5.90688867963949   12.01953774297473
C         0.82428432842188    6.19254498782983   11.09108862939015
H         0.34657887909831    6.54504276287993   11.99332464692683
C         0.09964188127657    6.09020436368629    9.91337014830606
H        -0.94516787123195    6.36294111119825    9.89689375494436
C         0.71511959020794    5.63931865442976    8.75728461272448
H         0.15052162146541    5.56514152952821    7.83915718470876
C         2.05322938436397    5.28432673573607    8.76832159998560
H         2.53028494671990    4.93610852728796    7.86326077897821
C         4.97822454582652    4.19320595671969    8.52957216429667
C         6.01723172459638    4.68269176718382    7.74652071016436
H         6.54445061494415    5.57658317035833    8.04778077268630
C         6.37586481582742    4.02172892589295    6.58485310544917
H         7.18410638260972    4.40530602176663    5.97946739617856
C         5.70582810859091    2.87385120611031    6.19718527068452
H         5.98860249776114    2.36274601317883    5.28905634368180
C         4.67646070967187    2.37562017158868    6.97988918987917
H         4.15784747739307    1.47507200704632    6.68574497929963
C         4.32342084503408    3.02300748473936    8.14716727823467
H         3.53472856704795    2.62494368022067    8.77316792103515

