103
CSD_code = NOWXIG | q = 0 | S = 0 | Stoichiometry = C38H58N4S2W | MND = 6
W         0.00073151932552    3.18465574258905    0.00050826374970
S         2.05082628841835    4.55001012987326   -0.18241532815510
C         2.57996242074553    4.88750942636837    1.47400205798218
C         2.16129492213198    6.04959169307145    2.13227190349623
C         1.21139328891085    7.02567468645410    1.48304767837963
C        -0.10525584774165    7.10711940963742    2.25815225389804
C         1.85359216967522    8.40607986252891    1.34056524485091
C         2.63154528828802    6.30206966081624    3.41249383140103
C         3.50867262513635    5.44501698768359    4.05727799669591
C         4.03447595393457    5.77420515247939    5.43430097280838
C         3.71076899799863    4.67293729657119    6.44593411823188
C         5.54367794048837    6.02282188934824    5.37646711509722
C         3.90921011950656    4.30001668267746    3.38546694674095
C         3.47243228942643    4.00945766721623    2.10375398087594
C         3.94777352392791    2.74474508344291    1.42826762816606
C         5.47459652091272    2.68075536075478    1.36791468517481
C         3.37295826759492    1.51757254137648    2.13956616538949
C         0.17879119555058    3.33951934901767    2.01393195138504
N         0.21307090452376    3.52658659479587    3.16646594188187
C         0.30663246862634    3.77490881608003    4.53352660768113
C        -1.21244467070286    1.64335736892441    0.52154305509367
N        -1.93480758973820    0.80828444087548    0.92327785827162
C        -2.83652761105571   -0.11069468637617    1.45825276122080
H         0.99122337283171    6.65669762360695    0.47607775144503
H        -0.59839132616810    6.13559288117431    2.26784745742595
H        -0.77532582818359    7.82285913905136    1.78593525180965
H         0.06223763286891    7.42317110230392    3.28618920784389
H         2.78844903992568    8.33137508712510    0.78847745897004
H         2.06331351919149    8.84528283978511    2.31349803308393
H         1.18540211539575    9.07570327380376    0.80200328726278
H         2.31104053017751    7.20164816391559    3.92067977917274
H         3.55121533850914    6.69856784628420    5.77269935776388
H         2.63535175920223    4.52549586703360    6.52154781730457
H         4.09009221564015    4.94349328659295    7.42942437295139
H         4.16702717062974    3.73088445367431    6.15201426184170
H         5.91732732967037    6.32556830061369    6.35275613504503
H         5.76857398218004    6.80890387183228    4.65898382017841
H         6.06928807543165    5.12152420005873    5.07051462806690
H         4.59192840597009    3.61698926925855    3.86855722470438
H         3.56941755738680    2.74959256710093    0.40008431748837
H         5.79101833013098    1.81304643758050    0.79159252510439
H         5.90798782197951    2.60148105841396    2.36215968492679
H         5.86951494792730    3.57500960145641    0.89120759045838
H         3.72635936945327    0.60436852982376    1.66454028658300
H         2.28403206400432    1.53452309965962    2.08936152072190
H         3.67480776629128    1.50007920527372    3.18487819864304
H        -0.69342664460814    3.78904249099987    4.97330360950156
H         0.79108165074833    4.74138925926675    4.69001951477235
H         0.90331481424994    2.99186179883760    5.00750555398057
H        -2.80591051728276   -1.03861754371736    0.88165191606816
H        -3.84526717977050    0.30588685144354    1.41515217776810
H        -2.58179817100310   -0.32390041896581    2.49951413392847
S        -2.05143836566648    4.54940720054419    0.18229443857742
C        -2.57942730370173    4.88699987669211   -1.47449875809451
C        -2.16147145464597    6.04986568574261   -2.13182496399278
C        -1.21308618919282    7.02656130646729   -1.48131392535345
C         0.10410654714300    7.10983336264456   -2.25529159067917
H         0.59905868266520    6.13921725331199   -2.26381682068241
H         0.77237480862048    7.82718742348874   -1.78297738467825
H        -0.06296833673246    7.42478401478775   -3.28373914212037
C        -1.85687151102798    8.40622945280274   -1.33867404999951
H        -2.79328342907720    8.32988674716294   -0.78945942545766
H        -2.06408382492163    8.84671340812277   -2.31156621012137
H        -1.19087657338837    9.07563252187648   -0.79713541493419
H        -0.99339204828801    6.65726455517945   -0.47435315247253
C        -2.63122208415401    6.30272659034252   -3.41215996176476
C        -3.50728619922488    5.44535803677121   -4.05798706976098
C        -4.03255733057988    5.77508486235769   -5.43509441011866
C        -3.70816857595371    4.67469628915267   -6.44746815762194
H        -2.63258234406327    4.52937207908564   -6.52476470236558
H        -4.08948021356619    4.94482187378698   -7.43031389199264
H        -4.16217289499235    3.73167169063329   -6.15318421502612
C        -5.54187047548502    6.02311158965447   -5.37751636037246
H        -5.91531200285498    6.32648000963375   -6.35368952906940
H        -5.76725205458859    6.80857769431004   -4.65951128624386
H        -6.06724077937766    5.12138864533871   -5.07241041636245
H        -3.54954623394483    6.69986347775092   -5.77271560195826
C        -3.90736881599343    4.29969643334727   -3.38700826945666
C        -3.47097502837011    4.00871396738646   -2.10525992787393
C        -3.94571909437427    2.74332953894740   -1.43062554890784
C        -5.47255229599180    2.67716016373633   -1.37248705173685
H        -5.78862135059497    1.81181146722283   -0.79241534078435
H        -5.90405564994853    2.59209986272107   -2.36708243355072
H        -5.86980644024465    3.57310003733420   -0.90091306133174
C        -3.36822268511040    1.51701759078433   -2.14124078255094
H        -3.72023479973614    0.60321026346093   -1.66635460498713
H        -2.27936850710896    1.53583190369020   -2.09032852269266
H        -3.66939481658723    1.49887572205425   -3.18674292965847
H        -3.56881598358171    2.74874219802697   -0.40192362958343
H        -4.58928504971038    3.61636805494725   -3.87080170207089
H        -2.31101262908435    7.20280426633625   -3.91964939759184
C        -0.17863045411516    3.34050297975648   -2.01285266562070
N        -0.21458491566519    3.52901722143252   -3.16507992950506
C        -0.30816214011348    3.77788447312908   -4.53201807136861
H         0.69158978463370    3.78886522728940   -4.97255988808185
H        -0.78966218915098    4.74592279249075   -4.68796920381516
H        -0.90784174307542    2.99693122147218   -5.00565841376308
C         1.20961317259233    1.64029821908747   -0.52097795733010
N         1.93103210048857    0.80496395190634   -0.92374051258234
C         2.83088846810454   -0.11782829312185   -1.45501569824301
H         2.82936303899506   -1.02815679833848   -0.85017680540460
H         3.83440023433053    0.31339358805756   -1.45310020649048
H         2.55022184785365   -0.36631300031276   -2.48159600753387

