31
CSD_code = NOXBOR | q = -1 | S = 0 | Stoichiometry = C9H13N4NiO4(1-) | MND = 4
Ni        2.10085480670559    2.08584316705628    9.16318113206489
O        -0.11710773262681    3.26828533255230    7.70682387883067
O         3.06948718005399    5.81909584540398    9.95211867580029
O         3.44510096665855   -1.52545406155504    9.91112302824345
O         0.05528693208461    0.78433539318525    7.73098689052743
N         0.99550958003955    3.44047182031718    8.46758428652855
N         3.09541907199570    3.51834096883617    9.89183432604172
N         3.23216640828336    0.76400758975511    9.86377161153842
N         1.14249763299868    0.66495920183022    8.45731879510046
C         1.37021738005866    4.63133059974259    8.75411359212949
C         2.61407097780576    4.72487560728135    9.60256177432545
C         0.66301350463870    5.86419829258165    8.30786230777936
C         4.28002936353670    3.46257415218774   10.72309067951653
C         4.31079985708970    2.18518884930224   11.56266867829463
C         4.41076915812981    0.93425006854494   10.68904716661689
C         2.86903896837944   -0.48914670750295    9.56394299411509
C         1.62939137570951   -0.49956163721872    8.72842680599294
C         1.01965818954360   -1.77788588297728    8.25549205051452
H         1.20317373289050    6.73038850393141    8.68290642518373
H        -0.35942106492480    5.86479733805888    8.68650478238853
H         0.61255112799365    5.89169628815540    7.21916363210607
H         4.28627523817928    4.34499738516785   11.37852133910871
H         5.18088072914792    3.50495355184798   10.09224102995671
H         3.39274229025898    2.12950621800398   12.15350295331534
H         5.16569530513795    2.22090830988939   12.24323241149499
H         5.30748371627180    1.00526416621824   10.05433220018364
H         4.51550359856397    0.04181506210140   11.32188179272828
H         1.61653759781985   -2.60657892887102    8.62817891369810
H         0.98853880411567   -1.79737068088391    7.16545693369022
H        -0.00619516099986   -1.85981363678547    8.61649205798927
H        -0.18316953554020    2.19242782384279    7.62323685419571

