76
CSD_code = NOXCOS | q = 0 | S = 0 | Stoichiometry = C37H34N2P2Pt | MND = 4
Pt        3.56342126979174    0.76573652241928    5.74889149967809
P         3.74428392818913    3.07911327069588    5.39087311753488
P         1.63682605443771    0.32062585862796    4.62068701802025
N         5.26372413180041    1.06163317960223    6.79164352450309
N         1.03815458901170    0.92050363167421    7.49260375771981
C         3.72572998773392   -1.24030677796928    6.26975710044402
C         5.30198915083146    3.39101330886133    6.24279923224698
C         5.91683602693379    4.63346520563570    6.29464312575219
C         7.11969326131025    4.78611863512103    6.95337251168931
C         7.70841426482764    3.67702872500168    7.55741706800809
C         7.11526265650558    2.43957012680473    7.51104255056465
C         5.88364318669337    2.24682265577256    6.84616537094996
C         0.44668958146413   -0.56410163662387    5.67455006588841
C        -0.29438499945180   -1.64802226536111    5.22126968169443
C        -1.18277092589915   -2.30131274554046    6.05462993735491
C        -1.33039139996151   -1.87550458810048    7.36575257216026
C        -0.57919380504567   -0.82293468881452    7.84346310998599
C         0.33134207082067   -0.15496322845566    7.01958467924023
C         2.63921675194517    4.39273407866088    5.98076484038030
C         2.69088798819464    4.74724977995919    7.32675622429540
C         1.80782778070017    5.68031408177746    7.83484479334798
C         0.85714466649667    6.25826991190726    7.00832557956331
C         0.78860818637554    5.89361840756965    5.67384205483183
C         1.66935475524754    4.95950985833335    5.16098990968722
C         4.14695475781541    3.49657682062578    3.67021133205739
C         4.53561898456190    2.42004685546246    2.87673566192221
C         4.91988554299971    2.61771836740283    1.56517343526200
C         4.92097628273519    3.89946231524787    1.03699739789146
C         4.55115596465452    4.97607478877485    1.82672703497242
C         4.16894284382895    4.78166608458625    3.14222431367083
C         0.65461205345381    1.71744259883064    3.97517928006177
C        -0.42321725550061    2.24826735303559    4.67353289362468
C        -1.13524542072551    3.31043665661544    4.14453628791817
C        -0.77507273185999    3.85388020060917    2.92290680171320
C         0.31496078899264    3.34355353637733    2.23418017361193
C         1.02970762866579    2.28355664284782    2.75861594992511
C         1.80396686185730   -0.68055844061738    3.11233550598102
C         3.03883979570335   -1.25758821075189    2.84129736633772
C         3.22028065495198   -2.01116405858160    1.69522388372338
C         2.16870970326488   -2.18845030116634    0.81179958606502
C         0.93894738580281   -1.60186056009240    1.06919141633888
C         0.75430034712145   -0.84508514680038    2.21128784396805
H         3.64185197475635   -1.30902095850740    7.36116014450845
H         4.70351231620017   -1.64808660019617    5.99524487425074
H         2.96491438186258   -1.90489493263751    5.84781004624912
H         5.76828146351744    0.30947904347955    7.24937470169720
H         1.04001832049796    1.03131059885267    8.49480914946884
H         1.95604406197614    1.08668797677602    7.04511258422798
H         5.43903821476726    5.48123128364720    5.82058009396013
H         7.60043054741660    5.75139777844664    6.99996120748883
H         8.65180476262914    3.79267314787316    8.07339125711296
H         7.58801340489658    1.58882406348490    7.98459496961085
H        -0.17024937796927   -1.98958197860285    4.20406694574627
H        -1.75435565309848   -3.13889216757529    5.68523791388961
H        -2.02468644102108   -2.37826302943671    8.02286858960692
H        -0.68072420874103   -0.50458507079038    8.87182874200363
H         3.43699289148871    4.29258919290976    7.96517454738205
H         1.85929532205614    5.95943541149810    8.87737917062804
H         0.16880568317841    6.99005081218812    7.40528440742135
H         0.04408119256150    6.33672586165595    5.02815906983033
H         1.60957297797376    4.67006720985586    4.12214363261548
H         4.52693546288226    1.42167099210077    3.31288434349675
H         5.21427482904378    1.77763570557385    0.95260264726652
H         5.21457210711607    4.06037528398899    0.00991012960327
H         4.56337549108766    5.97514048453555    1.41481906717967
H         3.88482908428432    5.62605309427594    3.75416399053363
H        -0.70831050108531    1.82563838365757    5.62548644875453
H        -1.97730555759164    3.71320361913698    4.68811947241672
H        -1.33744878420620    4.67799115165254    2.50885928298236
H         0.60957715097113    3.77311630028409    1.28733865435957
H         1.88053079702353    1.88514699983493    2.22223437873526
H         3.85292491092742   -1.10423744272530    3.54070338837019
H         4.18166258193278   -2.45824085840831    1.48907121431686
H         2.30689097774090   -2.77759827525564   -0.08288882496415
H         0.12230175274264   -1.73306663110117    0.37407219439621
H        -0.19898548481875   -0.37083326046728    2.40271607426091

