60
CSD_code = NOXFIR | q = 0 | S = 0 | Stoichiometry = C23H32IN3Pt | MND = 6
C         5.17443324691103    1.43334328436764    1.22817008867158
C         3.81498770124860    3.42181379964800    1.03635038908010
C         3.69631201042399    3.55345310419345   -1.19158346783859
H         3.39538631282375    3.96668162837712   -2.13198888557994
C         4.45746807615923    2.47795993040704   -0.90747236242820
H         4.92415110190233    1.77748103883887   -1.56611000992300
C         2.54806535159217    5.31315958389553    0.08155182111615
C         1.16764074197434    5.25505736706078   -0.11951783569800
C         0.45495141576324    6.44717251125004   -0.08258771387092
H        -0.61227862831624    6.43156048095140   -0.23534156077090
C         1.09312507752133    7.65017933885648    0.14233667332442
H         0.52323747055879    8.56713044850583    0.16558199358736
C         2.46147466011474    7.68662745584874    0.33171071044535
H         2.94888389352514    8.63452786846088    0.49494923376582
C         3.21455134530839    6.52118977928492    0.30858845914441
C         4.71618380433949    6.57993323208161    0.46746196989248
H         5.09147633312609    5.57447447944370    0.68266094340340
C         5.13779951706808    7.48089572002713    1.62845859685139
H         4.93950552039731    8.52700815931269    1.41161255945071
H         6.20507307541615    7.37307250758919    1.81035723082461
H         4.60382670351712    7.20365132537438    2.53380004550285
C         5.34716208175457    7.05440201537873   -0.84546469645138
H         5.09606782177156    6.37882013646322   -1.66147104971768
H         6.43022424317750    7.09287056580841   -0.75069478262920
H         4.98686298099389    8.04796649034867   -1.10206677878758
C         0.45315144187010    3.95503354129294   -0.39613087470989
H         1.13047993666317    3.11957155280015   -0.20564773617734
C         0.02397256067254    3.89686676357985   -1.86492182372926
H        -0.66714415004579    4.70480316083649   -2.09475965106001
H        -0.47104760670411    2.95010586857794   -2.06558510398024
H         0.88200745141230    3.98415151647856   -2.52915976575308
C        -0.75702048887642    3.77283525561259    0.51987928390496
H        -0.47268046699955    3.92664258481585    1.55681074904762
H        -1.13510387929069    2.75869274788307    0.42341977089518
H        -1.55624590003279    4.46590148514989    0.27056569492654
C         5.93332452884321    0.41925992368119    0.64714724232538
H         6.04371916101782    0.35227673746867   -0.42220174501767
C         6.53853435411286   -0.50965424417200    1.47130109562232
H         7.12339231923064   -1.31048405802804    1.04554119716688
C         6.38313425702797   -0.39629584213960    2.84530086828234
H         6.84089416415746   -1.10029214107271    3.52043452413694
C         5.61668902005893    0.64413353541398    3.33553863414976
H         5.46644102490715    0.77396022950661    4.39862618923967
C         3.21421441166372    2.52531831600047    5.10057698073172
H         3.82230678719526    3.04641460294555    5.84311390739613
H         3.44334496461755    1.45577169979929    5.16861743388777
H         2.16866726842386    2.64081165223979    5.39724726349296
C         2.20369652816308    4.66997022371054    3.49717257264960
H         2.44194058394883    5.51065318233649    2.84058913113083
H         2.22637741408307    5.02163673803336    4.52893317030510
H         1.18897783888542    4.33229053609331    3.27524062666476
C         5.07328811651961    4.31114238023055    3.79023804324399
H         4.76283695363139    5.11611235644997    4.45304902015482
H         5.59212866460825    4.75363503290777    2.93888209998434
H         5.78492314124384    3.68337900776494    4.33140096290226
I         1.61827923802813    1.28518550670910    2.30760764410311
N         5.02085303060850    1.53070657435533    2.55113504290378
N         4.52801388500450    2.40085431816943    0.46804939273043
N         3.31443713662427    4.11480403545656    0.00451060243028
Pt        3.51184444967613    3.11247296737351    3.13708598462334

