115
CSD_code = NOXGUE | q = 0 | S = 0 | Stoichiometry = C43H68AuClN2 | MND = 2
Au       -0.34214104814773   -0.42137885615964    4.46718413071291
Cl       -2.58189670470009   -0.23162086992009    4.38113552840470
N         2.53132346058165   -0.30355790519557    3.57458947493726
N         2.38746091283858   -0.72769563481108    5.66959953627574
C         1.64653811511294   -0.52083435811551    4.56602402854704
C         3.81498251456601   -0.37197609065057    4.05144205623554
C         3.72415546047790   -0.63578022122014    5.37401494260037
C         2.21432216375124   -0.05953771587466    2.20984237678140
C         1.80503413169458    1.21626821146537    1.81690550770467
C         1.53549962444202    1.42785775017983    0.47058771949299
C         1.68695581589557    0.41275431191131   -0.45314625158856
C         2.10652151674251   -0.83891586713592   -0.04662526973503
C         2.36787370475298   -1.10145163057552    1.29141606865860
C         1.66800270616499    2.35450941646097    2.79779669346306
C         2.64478631520568    3.48628299741935    2.44638696383299
C         4.09268826470358    3.00401154653778    2.37527971220001
C         5.05761842734482    4.15699060783461    2.12955542088922
C         0.20670668225498    2.82883621199282    2.82827999390548
C        -0.09902079162851    3.81638056204082    3.95153135951911
C        -1.60303172964180    4.00795796074583    4.10345974487651
C         2.82741294417182   -2.47512746513795    1.71888826783794
C         4.25298300569894   -2.72334606513372    1.19374648466316
C         4.97632603715623   -3.85309290793472    1.92364604378729
C         6.39386775822790   -4.03954207581613    1.39613263812847
C         1.84261521102378   -3.55544406048425    1.25268985415896
C         0.42168806273392   -3.27137799412034    1.73353070033417
C        -0.53463300067243   -4.40729221756715    1.39638016262511
C         1.92384185490118   -0.99467350973859    6.98785415247310
C         1.45718411935783   -2.26888552262375    7.32034563006748
C         1.19333339550948   -2.53455035562207    8.65861518300276
C         1.35813546040977   -1.56271369478836    9.62594874571874
C         1.74180544848839   -0.28585769743539    9.26501351429093
C         2.02248441356364    0.02300841395177    7.94090128741720
C         1.18216376555484   -3.33036161935255    6.28355713522478
C         2.20355406769982   -4.47285407028123    6.36400439365971
C         3.62412190648553   -4.00754722239952    6.05516835707915
C         4.61063373806909   -5.16807180161519    6.03147320998927
C        -0.25810983915018   -3.84964552352237    6.46028766733228
C        -0.86028556409875   -4.40442870238555    5.17266619370719
C        -2.23459728120032   -5.01304044062775    5.41894432575281
C         2.37294668181887    1.43847064652307    7.54844366602670
C         3.73396665678129    1.82586219625888    8.14982614418404
C         4.26910101542853    3.18786815701767    7.70482263166540
C         4.48218465395671    3.29052383121050    6.19905894933943
C         1.25297703448604    2.40108975146572    7.97343012152398
C        -0.12773939573107    1.93659175170598    7.51182962734305
C        -1.20240484611813    2.97292989807282    7.81122376848163
H         4.66518644658250   -0.22720987392085    3.41842006806030
H         4.48159798819798   -0.76902954710836    6.11769732388451
H         1.21165342873841    2.40201462552023    0.14048344878735
H         1.47927726347722    0.59824990117792   -1.49628233472093
H         2.22827894548222   -1.62298695417662   -0.77699154633396
H         1.91954257347054    1.99613580094532    3.80203154685124
H         2.56969148318564    4.26469488785516    3.20743902406205
H         2.36668680593362    3.93045802151181    1.48931302993406
H         4.35497905917453    2.51005141044744    3.31399131940919
H         4.19182352355169    2.26997417767544    1.57163231056221
H         4.98447499878243    4.89153187657602    2.92852293811421
H         4.82925654969440    4.65134064054875    1.18812592490416
H         6.08314015371211    3.79722815498378    2.08771418317161
H        -0.05707888662652    3.28010568293471    1.87072463806860
H        -0.42910809718006    1.94903331421585    2.96500077065720
H         0.37235818303999    4.78036262775874    3.74567310711009
H         0.31081825776621    3.43598597402290    4.88975426690186
H        -2.08160379869386    3.05980310645838    4.33647118201325
H        -2.03307427856741    4.38956771910605    3.17992144797295
H        -1.82441430241358    4.71256787945853    4.90183345189249
H         2.85891474944557   -2.51794933313648    2.81264703567944
H         4.21109830817888   -2.94923812366872    0.12658423762998
H         4.83681213687402   -1.80514212980431    1.30730121635659
H         5.01646172839742   -3.62706904838614    2.99231148625776
H         4.42401571981107   -4.78604454876818    1.80171504504924
H         6.97326481251251   -3.12705784595032    1.52242344525049
H         6.37711562895661   -4.28874766290976    0.33744220109823
H         6.89785384195354   -4.84219368845549    1.92933250669381
H         1.85100954546966   -3.62864205483692    0.16389063064885
H         2.16551648016308   -4.52013108553061    1.64947239452679
H         0.05810490037782   -2.34623385662692    1.28154439678917
H         0.43628752341993   -3.11858246697819    2.81491352831885
H        -0.21011222150076   -5.33563999942907    1.86252959540329
H        -0.58186417181302   -4.56145576644631    0.32038405374108
H        -1.53392297717472   -4.17440173427184    1.75458766580533
H         0.85041685287531   -3.51623567340075    8.94411580068801
H         1.16027800328533   -1.79392330068444   10.66184794941883
H         1.81867806773582    0.48144253752303   10.01917976305426
H         1.25231572367191   -2.88080729258820    5.28797989025462
H         2.17997723361189   -4.91494578278547    7.36223468570444
H         1.91955607683481   -5.24725764636209    5.64891601955613
H         3.93626308497202   -3.28126344116882    6.80982555747905
H         3.63614308447647   -3.50658404429247    5.08312969162178
H         4.33462521162365   -5.88744193946389    5.26354958445450
H         4.62113856255997   -5.67896963912320    6.99152191080243
H         5.61698398979329   -4.81233179213548    5.82138868887561
H        -0.27442671607219   -4.62675566980350    7.22740951334333
H        -0.89057615928546   -3.02762127309086    6.80290564120606
H        -0.96341496620317   -3.59041006808716    4.45310962605256
H        -0.19898648965338   -5.16014087029039    4.74245944131912
H        -2.91475826146038   -4.25715113642588    5.80363203907491
H        -2.17514863775368   -5.82588973118569    6.14059479659884
H        -2.64816610726875   -5.40440920823033    4.49255658569511
H         2.44928779928466    1.48980209120607    6.45912811736899
H         3.65427466892684    1.82142542673809    9.23882012089492
H         4.46462850160199    1.05962876531616    7.87468454413981
H         3.59140790884132    3.97761362527427    8.03154028301345
H         5.22512752379191    3.35151501151432    8.20842877627832
H         3.53424058185634    3.28215482791693    5.66704004068838
H         5.08944070213664    2.46008342820972    5.84242716669683
H         4.99472219063255    4.21782396904353    5.95384988337223
H         1.25095879812868    2.51594191734079    9.05913968149102
H         1.45423156697640    3.38274762117132    7.53962720981580
H        -0.38675143016480    0.99805042819031    8.00568944944949
H        -0.10940667522905    1.73649198563118    6.43666866182651
H        -0.96788155824206    3.92073224373712    7.33105094528896
H        -1.28533412967063    3.14194019339250    8.88315829990123
H        -2.16362415816865    2.62920223758933    7.43924549572830

