95
CSD_code = NOXGAK | q = 0 | S = 0 | Stoichiometry = C37H53BClN2Rh | MND = 6
Rh        3.19113617284502    5.00059586676816    3.08006483783101
B         0.48528828024764    0.12687223917925    4.34794641278258
N         1.84388598104967    2.25573195476289    3.29770378941942
N         2.77200140603837    2.87227906636133    5.17416523885170
Cl        5.25637967598354    4.01803491220027    2.67834959658065
C         2.60229569627963    3.23027160508001    3.86749782860611
C         1.49219486796851    1.30050949228110    4.25270755501430
C         2.11707881303524    1.70047805096549    5.39695789152453
H         2.09837589599953    1.20300479076513    6.34268098845663
C         1.63178933486441    2.02248818012581    1.85318188688845
C         2.60483507234271    2.82498042097876    0.99127620419251
H         2.45522715528685    3.90371668613469    1.10685635753000
H         2.44374890196157    2.56908801634162   -0.05349455169146
H         3.63448453641160    2.58664858479952    1.24879548341445
C         0.19876571268266    2.35848082237880    1.42814335426234
H        -0.52386678119635    1.74717690676082    1.95671038952095
H         0.09095263492306    2.16596911986585    0.36367634606656
H        -0.02770273873934    3.40581799967773    1.60116759054408
C         1.90399550018944    0.54221100120126    1.56064896979049
H         2.93517177354274    0.29734391175968    1.80255787287452
H         1.74770581682080    0.35063609425018    0.50200018742601
H         1.23961989783896   -0.10093989352703    2.12874934693321
C         3.74769551202480    3.35456967929068    6.16961954023868
C         4.01102803477289    4.85414410931325    6.08251632329209
H         4.30002692349023    5.13073614637164    5.06204618088584
H         4.83416089963627    5.10563329541881    6.74647396736880
H         3.13527202897571    5.42223691561112    6.38628416566059
C         5.04952926999738    2.59030851882672    5.90220384217533
H         4.88022444939224    1.51581506680246    5.94747326344866
H         5.80042329781872    2.85546102947108    6.64126098556909
H         5.42417881522594    2.84542228753867    4.91237770199794
C         3.23217564613911    3.05390681909908    7.58458772993816
H         2.19402187295062    3.36308415242135    7.69169945687027
H         3.82826031682436    3.61294592178189    8.30128827588301
H         3.31886871558176    2.00119018072374    7.84110512923794
C         0.87252752048731   -1.01390189887894    5.37128399867068
C         2.10886900181387   -1.68476541408752    5.30002657913516
C         2.45189588232498   -2.64387822268011    6.24166975327959
H         3.40632355811264   -3.14542776858287    6.15719518812214
C         1.60731504757220   -2.97380308292619    7.28779716600488
C         0.38520460145847   -2.32337359599458    7.35793924096925
H        -0.29328518828512   -2.56942970524591    8.16344679425648
C         0.00768098350136   -1.37074670873392    6.42474689410430
C         3.07534569568334   -1.44343678030362    4.17682269037153
H         4.00518902623095   -1.97851558914901    4.35474370570063
H         3.30088830279866   -0.38682286514258    4.06993746443583
H         2.65694686668100   -1.79819770996712    3.23576343174695
C         1.98258711120884   -4.01336919871473    8.29846140146188
H         1.45498065493021   -4.94450967858860    8.08932049097151
H         1.70694418998595   -3.69301896733847    9.30152619922344
H         3.05096029756611   -4.21409293578897    8.27270792431936
C        -1.33860289068805   -0.72867808360113    6.59932360690527
H        -1.80901342398861   -1.08054559712610    7.51476204309258
H        -1.99147860099434   -0.97163129208391    5.76408635077309
H        -1.25507554148600    0.35358825155751    6.65290831268942
C        -0.95285193929857    0.18325947691731    3.71793938025328
C        -1.48491292944580   -0.89233963400158    2.98766109986133
C        -2.77411009707659   -0.83078375962696    2.48080206572275
H        -3.15769515275651   -1.66771622180943    1.91348920682003
C        -3.58680471470995    0.27186647346684    2.69347667614220
C        -3.07265832407951    1.32591153629460    3.43253570823835
H        -3.69379726594575    2.19089261775790    3.62103024924255
C        -1.78115899688734    1.30121213853381    3.93576927042989
C        -0.66851143756919   -2.11963114635640    2.70133247095975
H         0.01466362036252   -2.33453428818559    3.51824672957729
H        -0.08266907824975   -1.98272931035004    1.79118869538662
H        -1.31731099906198   -2.97943451177049    2.54940753621409
C        -4.97504690715445    0.31583127500653    2.13261486999442
H        -5.54033807435055    1.14317747448483    2.55452525474205
H        -5.50271493693012   -0.61347080332986    2.34049263089906
H        -4.93764954733818    0.44196130147229    1.05031455219170
C        -1.30679713881200    2.49424054116274    4.71849703767123
H        -0.65733038538587    3.11917673121700    4.10700974924798
H        -0.74051943635875    2.19906119387917    5.59832275129783
H        -2.15351038012612    3.10019005981139    5.03412777661212
C         3.55573734762731    6.63463202096369    1.69501650365463
H         4.19599211210041    6.22016618344695    0.91617304163926
C         4.13608829320308    6.93600054455341    2.90942882121522
H         5.20877877846605    6.77792635356993    3.01552559536264
C         3.55556295831286    7.89992939794631    3.91821982731008
H         3.66740716714889    8.92262442365844    3.54053432707869
H         4.14416947735222    7.83075439476286    4.83576808237237
C         2.07602079435090    7.61992922965608    4.24591618913416
H         1.88727309846881    7.89965719275568    5.28487266997253
H         1.42791000217122    8.24274365097963    3.62553142725672
C         1.68751001175070    6.16932021188950    4.04571704323903
H         1.33758234772608    5.66996414722722    4.94818272329142
C         1.19282150095212    5.67468261542113    2.83845440920460
H         0.47414463438521    4.86054596588987    2.91343220348180
C         1.02400769496421    6.49629117687323    1.58062851459711
H         0.17394918375637    7.17759091908031    1.70782857694968
H         0.76862413179615    5.82013102164025    0.76009120602011
C         2.28588788285701    7.29321760420140    1.20229409970913
H         2.33180961879515    7.38958385809844    0.11539033660859
H         2.23101460086200    8.30307483441062    1.61306131475986

