38
CSD_code = NOXHIT | q = 0 | S = 0 | Stoichiometry = C14H16N2O5W | MND = 6
W        11.98745832500870    3.21304154728106    3.99878685146170
O        11.59420689678241    1.04920889924839    1.76439194969277
O        14.97371785877913    3.21655418144052    3.05973503523671
O        12.93108772381452    5.31119867046709    6.12997522935876
N         9.11206501636095    2.14188927501595    5.03042913566747
C         9.87385904498290    3.21201886704179    4.71041278095773
C         7.90184734448887    2.53538599198784    5.53637477551570
H         7.15751953749754    1.83657004150620    5.85816235080779
C         9.43077644991908    0.75458527451050    4.80868954149990
H         9.12287835998825    0.17772533752281    5.68654935541730
H        10.51245809990333    0.65937363437755    4.68801689655696
C         8.72645765075893    0.21701839378013    3.55900845909583
H         8.97413908116731    0.85997288435668    2.71205825557677
H         7.64413024152682    0.25604586747767    3.70365378413142
C         9.15821693017949   -1.21191110865837    3.26174171659886
H        10.22743759734439   -1.25153650345232    3.06956209118895
H         8.63895132981734   -1.58936414981428    2.38504954349662
H         8.93437511252088   -1.86455236826517    4.10277403954300
C        11.64795426380165    1.82791970727289    2.60184092162964
C        13.88106316643577    3.21471231580856    3.39983714842237
C        12.50395247212646    4.57414121036873    5.36487518667579
N         9.11113150717182    4.28120691077786    5.03136388287524
C         7.90124940826114    3.88624688984989    5.53695766608703
H         7.15629073742182    4.58414155332980    5.85926789176313
C         9.42928594243220    5.66885308584423    4.81112063555435
H         9.11919045499288    6.24492013652146    5.68870723221663
H        10.51116825029486    5.76470643787109    4.69274607291375
C         8.72761095635051    6.20683697856845    3.56011502099934
H         8.97506852106005    5.56279105684629    2.71392830666922
H         7.64501352401276    6.17027483692935    3.70331553810075
C         9.16306976753698    7.63458362995836    3.26257105291002
H        10.23278452077374    7.67171343256277    3.07258982106617
H         8.64649351038361    8.01239024907048    2.38445928305455
H         8.93893093742260    8.28845629648420    4.10255980183928
O        11.59037345045644    5.37004192850739    1.75829187438058
O        12.92987903525476    1.11934303550155    6.13496015764048
C        11.64543547631042    4.59429949508520    2.59843347450893
C        12.50447149665994    1.85519607701482    5.36778723888778

