54
CSD_code = NOXNUL | q = 0 | S = 0 | Stoichiometry = C17H31ClN2OPRh | MND = 4
Rh        6.34791414431692    5.76278570659790    2.64312517484590
Cl        8.17059872921067    4.65310535481306    1.72353399133325
P         4.30215154988827    6.68549604002005    2.50499095946774
C         5.24333566316037    4.07174340904441    2.87103775793314
N         3.98428732787061    4.05707809723983    2.37074536821919
C         3.36354285005590    2.87477254477652    2.65341701659045
H         2.36596609393387    2.64976954898595    2.33435857005841
C         4.24663295289260    2.14121872258010    3.36850098556411
H         4.13235391247165    1.15650565790849    3.76713052565135
N         5.38249655879787    2.89158805355611    3.51945997171280
C         6.53553706711973    2.47417141033360    4.32697138671515
C         7.57256597146839    1.82393156219829    3.41096911992712
H         7.12861567365949    0.99157187778415    2.86787368015597
H         8.40600134063228    1.45093133092805    3.99926002609516
H         7.94658721321788    2.55420619938766    2.69576719709727
C         6.08306083063955    1.46933654759211    5.39360916326057
H         5.21592650523159    1.83789695921837    5.93940631595121
H         6.89422090414951    1.32556032186646    6.10248217406701
H         5.84917606415097    0.49919826673371    4.96173910395803
C         7.11535466962544    3.69881563434770    5.04058267304688
H         7.34713446901842    4.49903824598676    4.31863761216433
H         8.03861568450988    3.42621371539800    5.54340484884328
H         6.41129522000520    4.07671028500890    5.78183406637131
C         3.37449918929650    5.21769219725536    1.78866019418895
H         2.30068879268421    5.21895104041201    2.00257841294971
H         3.52283023793981    5.21959558481946    0.70302060656416
C         4.03586226559835    7.94862105422373    1.11686316920919
C         2.60190369197623    8.09842850223697    0.60847685741856
H         1.96675003134615    8.61313178897824    1.32142106938783
H         2.15193646746795    7.13730044558292    0.37166843042333
H         2.61808155475033    8.69104321684981   -0.30571656162673
C         4.91911030525116    7.44782148647491   -0.03580441866037
H         5.14710648993671    8.26677822075356   -0.71537336098253
H         4.42248758896217    6.66998415217956   -0.61275655704969
H         5.86706611897034    7.04430241154176    0.34174681339758
C         4.56454237607960    9.30036607317142    1.59427732507921
H         5.55854875826199    9.18740684067772    2.02402278315469
H         3.90631383509885    9.74173566324805    2.33928668149038
H         4.63135075874617    9.99429412377402    0.75752724687927
C         3.30842866508597    7.11612822037419    4.06334862018984
C         4.18574972081036    8.08435484384897    4.85871550530824
H         3.77974489008919    8.23068681729956    5.85860962104561
H         4.25519817012797    9.05497102519877    4.37599507004486
H         5.19437490532824    7.67542936194771    4.94924835568238
C         3.20539948942072    5.81518106941726    4.86460718670244
H         2.84190022718031    6.02772147046094    5.86932622832964
H         4.18989442239295    5.35299116044124    4.95230860765921
H         2.51942906643064    5.10556132182629    4.40589361033862
C         1.91687763100616    7.69769458915656    3.84650776864816
H         1.32918525542321    7.08846485306083    3.16263036528633
H         1.96969843291758    8.71212740390600    3.46100338634073
H         1.38972733213303    7.73469243208114    4.79977904529760
C         7.40157421685049    7.26958652689252    2.60565303849181
O         8.13006771640908    8.15571060959125    2.66723720977898

