93
CSD_code = NOXRID | q = 0 | S = 0 | Stoichiometry = C53H32N6NiS | MND = 4
Ni       -2.10623460940876    2.90391343102383    7.00522978982613
S         4.92716739840315    3.18756608251980    2.90822393007531
N        -2.94933732785910    4.63635921962426    7.14353905231024
N        -3.54330034756366    2.11486928128519    8.03431908916026
N        -1.36317990374231    1.13943820070213    6.68803718850622
N         2.75459761621174    3.70575822382482    4.76585587368276
N         2.15400793302587    6.14379180341950    6.03814428417788
N        -0.56410762359076    3.72634578690185    6.14962145157312
C         0.48817263986172    1.72723297560913    5.18924795150404
C        -0.74157574273118    7.47298713431639    6.07560350437386
C        -1.11027341415421    6.08398840765442    6.39545735365001
C        -0.18790572355683    5.04844268595101    6.26770903288726
C        -6.44744083918454    4.45148944513048    8.53089757044058
C         1.19627758308356    5.17810010011292    5.90438260110466
C         6.19035101102109    4.78023735785992    4.47899701243484
H         6.42369734851627    5.46370119671351    5.27385247285652
C        -1.79286116361441   -0.05340778249921    7.20014882939037
C         1.56352594555731    3.96778725686365    5.32177006388777
C        -2.75459710276907   -0.20216115541530    8.19301336796287
C        -4.67896704032551    0.72219176480715    9.46811177176648
H        -4.90333263838211   -0.15938193886210   10.03605608825930
C         2.54340079599066    0.39305694090917    4.70851175739143
H         2.60040162349826    0.13452413501769    5.75612134761078
C        -4.26714740168178    4.87429204871521    7.43120131738707
C         1.47532539664686    1.58786326362705    2.92348479366106
H         0.69034164986372    2.24592701689220    2.58033416116135
C        -5.37622698039595    1.88005763022546    9.40008253649570
H        -6.27545292840247    2.14848783535249    9.91925808441808
C        -1.01390713305690    8.50760271504014    6.96924821020298
H        -1.47202107637008    8.27729604313063    7.92069451997740
C        -3.49793506787271    6.79305848884143    6.58029838552998
H        -3.38148153122865    7.78477306695706    6.18948232050013
C         1.52927293509550    1.23482868552353    4.26704310680655
C        -0.39217140893845    0.82458996159574    5.77943620848149
C        -2.98741445214352   -1.53126316661125    8.79492346928192
C        -5.10115455089260    4.00860915892886    8.12962863463124
C        -0.26079508530926   -0.59844740987495    5.66485042935528
H         0.40637352019570   -1.09886015605450    4.99131692110903
C        -2.45088293054305    5.81973164147690    6.68202701679752
C        -4.66966786496235    2.73524686452933    8.49500420130333
C        -3.54357070567179   -2.56563555459098    8.04978960497513
H        -3.81723767534453   -2.38920163834942    7.01951327721146
C        -0.14500357416069    7.77614972386098    4.85428771316672
H         0.04512564248807    6.98372002703074    4.14445025224716
C        -3.55961056643293    0.86233563976545    8.58498803275778
C        -6.62222461166171    5.59117329299058    9.31119772923584
H        -5.75536883154077    6.14681504700550    9.63842999354246
C         0.45193723670954    3.07497170744245    5.51950570616268
C        -7.56795593096934    3.72587832055379    8.13465722440000
H        -7.43726368306714    2.84355357407185    7.52507170044534
C         2.40610219946903    1.08751153333794    2.03303324376725
H         2.35151265626465    1.35934682712778    0.98909134054376
C        -7.89081650530134    5.99742147354941    9.68252035757675
H        -8.01417644710824    6.88072215901359   10.29217417247976
C        -8.83537093254365    4.13892981268165    8.50160685029176
H        -9.69780678100816    3.57181733329969    8.18288894494613
C         3.40827312877269    0.24132623140720    2.47670881074917
H         4.13566843622979   -0.14836471724335    1.77989288464783
C        -1.09852335321419   -1.14112715811763    6.57784077665448
H        -1.25023011615767   -2.17727700843399    6.80802199138215
C         4.17378930502575    7.04867561806761    5.67377574574086
H         5.16547067228016    7.22698737578772    5.31383514249803
C        -9.00055024557207    5.27528696709542    9.27613165310172
H        -9.99080952528708    5.59550214773756    9.56452384937950
C         3.39867288715269    5.92229154118525    5.42944510281123
C        -0.67851949892733    9.81115007594399    6.65393739071297
H        -0.88705905373091   10.60369198751581    7.35778251494860
C        -2.65805640422868   -1.75568621323783   10.12762114635924
H        -2.22716952427172   -0.95270000224524   10.70806181911889
C         3.48064656730856   -0.09583135648748    3.81727454561327
H         4.26892288065679   -0.74521808398327    4.17014159585599
C         2.18914217835712    7.32386951050438    6.68686035388394
H         1.37029107615296    7.67563532671716    7.27758410224593
C         4.92047438790800    4.35859250494562    4.18739709248566
C        -4.62734866972381    6.20244367561666    7.03520823221875
H        -5.61520147829332    6.61491456250925    7.09578417480965
C        -3.76031438115341   -3.80377842214794    8.62735778638535
H        -4.19602595093829   -4.60004566346656    8.04143436037986
C         3.64870601741838    4.66992524328222    4.80177130656310
C        -0.07619776083134   10.10108530436972    5.44055417212322
H         0.18570385564756   11.11965915793265    5.19626438286673
C        -3.42249475133496   -4.02295293134381    9.95234263399757
H        -3.59002861962576   -4.99089817532680   10.40110961675220
C         0.18502942105301    9.08155461476155    4.54094451087651
H         0.64745126026951    9.30336768122417    3.59058411696333
C         6.63256896086145    3.30603586365391    2.76835425890507
H         7.14498482190468    2.72048043698327    2.03102648745335
C        -2.87164637494336   -2.99615253977587   10.70083317340495
H        -2.60769633074706   -3.16204912947973   11.73517254665396
C         3.41889755323238    7.90915460305412    6.46706035270485
H         3.73164592312580    8.85988832584415    6.85194168746690
C         7.16760651384015    4.17670810069628    3.66644586616000
H         8.22021319335786    4.38172102388482    3.74910196941095

