55
CSD_code = NOXSIE | q = 0 | S = 0 | Stoichiometry = C22H28ClN3Pt | MND = 4
C        -0.29514007022552    2.85807440512741    6.10489915743282
H        -0.42144757568658    3.50360837159660    6.97334520074353
H        -0.74047257909460    1.88243817414549    6.33330724038596
H        -0.87003827329748    3.28618235448698    5.27963259026229
C         3.77129520285120    4.52565982563514    8.50407785278302
H         3.88404301227806    5.26943370062772    9.26648217347999
C         4.68268384422956    3.70652045463691    7.93791404906013
H         5.73477044162161    3.64710244295968    8.10766852716112
C         2.68089829107950    3.30938936082524    6.97712793378363
C         4.49295154088352    2.04124419660731    6.05904416247665
C         5.67562502246491    1.30288563454986    6.17822875581343
C         6.00187559088906    0.47378377500871    5.10990226870369
H         6.90864901253302   -0.11114308700413    5.15881547689373
C         5.17006316531759    0.37905161233720    4.00575011121855
H         5.41986955447341   -0.25877265934269    3.17400149461018
C         3.99206264404210    1.10194406692802    4.00775490576699
H         3.27230215744386    1.04468303996795    3.20173660996151
C         6.56006479433643    1.32356509990635    7.38776110686358
H         7.17019495592348    0.42324102975194    7.40647643182727
H         5.97449521817905    1.36152646926948    8.30400472223604
H         7.23667231635907    2.17843194698060    7.36379991302297
C         1.35763948706382    4.96547663944891    8.21385661566833
C         0.97970290725690    6.03486129926286    7.40008986030334
C        -0.23409222884819    6.65337515461188    7.67030029629046
H        -0.57158831320840    7.46523089911862    7.04650509856727
C        -1.02173767227529    6.23471800071854    8.72462591143652
H        -1.96792365374657    6.71963484361493    8.91326670960100
C        -0.60646741859219    5.20200365525246    9.54508573149418
H        -1.23211454987439    4.89663189904918   10.36774030244471
C         0.59485449756861    4.54937041449186    9.30833082126262
C         1.85191995515040    6.50311720230599    6.25890697347698
H         2.85585745127610    6.08551964396360    6.38682297902940
C         1.98924975933577    8.02812377175577    6.24660733793204
H         2.75307512799947    8.32214966275733    5.53031892679390
H         2.27703382800421    8.39736122186095    7.22902402855301
H         1.05788304170594    8.50594641118242    5.95668439207596
C         1.29713708217013    6.00084253469341    4.92361123518612
H         1.89548885901225    6.38647559518219    4.10155132651562
H         0.26853252868695    6.32524204834598    4.79141510383423
H         1.31894944470299    4.90107591941904    4.88726809320399
C         0.51370013877774    2.08019028155142    9.57762320727799
H         0.86379310999367    1.94062989232784    8.55545868088755
H        -0.57317409443848    2.09537574377437    9.56449850222322
H         0.84325371735875    1.23697650801793   10.18069452220467
C         1.05282220358659    3.38941409457408   10.16269383720306
H         2.14751159298541    3.34853523762744   10.13593250484159
C         0.63681271155829    3.53136017114188   11.62732409147042
H         1.15045129209168    2.78355405078971   12.22759367660421
H        -0.43183779857027    3.37779586462917   11.74956416685404
H         0.89520891258186    4.51676327246855   12.00938208979487
N         3.67022656263565    1.90924865474136    5.00713594330911
N         4.01110351141525    2.95142611423781    7.00057910565454
N         2.55927241799140    4.27013284011075    7.91284707682103
Pt        1.63662120312173    2.53500456449699    5.49324121097783
Cl        0.79081611892644    1.65298567747848    3.59918895572008

