74
CSD_code = NOXSAW | q = 0 | S = 0 | Stoichiometry = C31H39N2PPt | MND = 4
C         1.78713666083789    2.48348946448793    3.24731231718006
H         2.36593031589873    2.87610962231985    4.09436843133309
H         1.80568570278895    1.39335710348284    3.34819218954678
H         0.74161807056324    2.77570501610604    3.41788839378476
C         4.22720314554101    2.01243520235586    1.85095725169017
H         4.08681620959458    1.25301667119162    2.62239248929196
H         5.05631608088906    2.65104544451576    2.17801405048302
H         4.55292369808210    1.49056687928638    0.94211254621865
C         3.41597770632369    3.91019044136583   -0.32976686848730
C         3.49788247361568    4.68384915268696   -2.43298613404898
H         3.15464789770673    4.85509569929601   -3.43298317474878
C         4.64251429568211    5.05352960556867   -1.81746520874838
H         5.48029520474648    5.61733305862007   -2.17213871667720
C         5.60385725425115    4.78345217189314    0.42390230859265
C         5.41737873769309    5.74646946069794    1.41862295279184
C         6.43462412374723    5.93625535732363    2.34481407648415
H         6.30653865782686    6.65569208051204    3.13817103853789
C         7.61112365559189    5.21861463870800    2.26341998266670
H         8.39402983921260    5.38201502304350    2.98929049191515
C         7.79043032822917    4.29262405381592    1.25406404650784
H         8.71781382318167    3.74466020115027    1.19643318537727
C         6.79014604993211    4.05036672251072    0.32301198033144
C         4.14797482992548    6.55893287686337    1.51188221124169
H         3.55332933424404    6.40318228269233    0.60554626948348
C         3.32187801760081    6.07377844651054    2.70387156073853
H         2.39362243020349    6.63750418229028    2.77375328110810
H         3.87607883358871    6.19281388782584    3.63160560101237
H         3.08577594638854    5.00097475354584    2.57271705485052
C         4.44148274768355    8.05733289257371    1.61475438190664
H         3.51091354146957    8.61831197012049    1.55662346731702
H         5.09069322299963    8.37953367351664    0.80247418383375
H         4.92291305536054    8.30260855813968    2.55744642789864
C         7.00390963151688    3.02624464576089   -0.76779019512134
H         6.05153506569936    2.84188886512406   -1.27425679393569
C         7.48849449370633    1.69029625700709   -0.20076233118412
H         7.48813063518035    0.93530178948295   -0.98429441077018
H         6.83205145488433    1.36005799297363    0.59976380593884
H         8.49914993400160    1.76970365880353    0.19073560839015
C         8.00528481513743    3.55840763469615   -1.79761349147665
H         8.14456753018208    2.83214541021527   -2.59547554808341
H         8.96892835029845    3.74536270374700   -1.32935307119001
H         7.65604476201496    4.48987440035148   -2.23820040685089
C         1.42911462895456    3.49727302966710   -1.73313562207395
H         1.34346537227814    2.48188981331662   -1.32897260814086
H         1.24796094128694    3.46267019196092   -2.81206765527704
C         0.41483810777498    4.41050618149149   -1.03925667116252
H        -0.58994963948533    4.19537523046020   -1.41065856811453
H         0.66219687923498    5.45521044942953   -1.24871505769962
C        -0.48898744805809    5.47756034994850    1.46659919130947
C        -1.32462547244351    6.29997285293288    0.71751437141786
H        -1.44188029559877    6.14545121676757   -0.34503739699294
C        -2.02457828206541    7.32349416462590    1.33255375615291
H        -2.67428790722909    7.95572160474541    0.74377405472160
C        -1.89957233102051    7.53866696178244    2.69483793331154
H        -2.44998995024212    8.33878373078266    3.16775964946739
C        -1.06508442217593    6.72747026800239    3.44659291409271
H        -0.96079443108970    6.89380800212275    4.50885582946360
C        -0.36102752703448    5.70793032605206    2.83430898221777
H         0.30185863601952    5.07628732842015    3.40939341353184
C        -0.69187818476590    2.71877393736234    0.84179516029755
C        -2.06948548319063    2.89348779122320    0.87883438852336
H        -2.49013753163824    3.88758632932094    0.94402445325465
C        -2.90442763037662    1.79036552136592    0.84902486995535
H        -3.97573700176146    1.92800635605083    0.88673866603730
C        -2.37278230500457    0.51335773795551    0.77413261768315
H        -3.03061001184563   -0.34336415503663    0.75173677466275
C        -0.99909364599349    0.33555577115623    0.74043993994556
H        -0.58272629278690   -0.66014528732097    0.69406082293164
C        -0.16147706206139    1.43435555573391    0.77794326600821
H         0.92130878998412    1.31436294068469    0.79975687643872
N         2.76627351051237    3.97935610447979   -1.51307463489923
N         4.57593650305731    4.57211902517160   -0.53380276546482
P         0.50681695968703    4.09685946448806    0.80042842936372
Pt        2.56821396281019    3.16952125144544    1.44725938396709

