36
CSD_code = NOXTEZ | q = 0 | S = 0 | Stoichiometry = C11H17As6CoS | MND = 9
Co        1.45781418685560    6.81606111580203    3.65847020966670
As       -0.21154388518387    5.82939117127325    5.23964572160905
As       -0.10214219177446    8.15921118816659    5.11653934503193
As        3.21213828057199    8.05158531585812    4.98461788644832
As        3.18168470696376    5.71946147348127    5.10470499638155
As        1.64461055648963    8.81579546405484    6.75871168402287
As        1.53453292049678    5.19904825116452    6.90557905028290
S         1.64245924230613    7.05810645836055    8.17261744904142
C         0.22864670503733    7.07261080300921    1.96838121426262
C         0.68306550109069    5.71759099314699    2.01413629266684
C         2.09826908205544    5.73085248497442    1.94947841345462
C         2.52104024764171    7.09617883854476    1.86786119720888
C         1.36326515855028    7.92284065992829    1.86233177519792
C        -1.20484582502375    7.47583521222589    1.85189349992273
C        -0.18659174497836    4.50709610409942    1.89798719471596
C         2.96602258189442    4.52730759200646    1.76172584467410
C         3.92610094726349    7.54189134074543    1.60922167347172
C         1.33527780313482    9.40041750377103    1.63312225755517
C         4.24750347741048    7.47449815342937    0.11577148756685
H        -1.32773439769478    8.54700773600529    2.00401542829747
H        -1.82180561506939    6.95230806940289    2.58856402805113
H        -1.57926848213498    7.22186391918409    0.85900870427533
H        -1.16294957791179    4.67714618347042    2.35313173909600
H         0.27289104010783    3.64408776455611    2.37825140331514
H        -0.33942784007392    4.26660811713944    0.84376166694873
H         2.59545170338676    3.68047967376854    2.33974150972070
H         3.99305694262148    4.72805885890381    2.06660888623743
H         2.97008656964626    4.23820089899341    0.70858438446052
H         4.06848450311040    8.56903745576382    1.96123383127013
H         4.62818854487075    6.90675821002924    2.16317523001099
H         2.25661328266847    9.86768468937614    1.97965741796521
H         0.49916520653979    9.86450261008249    2.15745231134849
H         1.22607378826074    9.60979660165311    0.56697243991845
H         5.26768599384738    7.80409952379892   -0.06708964936778
H         3.56983336153922    8.11505806814329   -0.44483595961800
H         4.14064722548364    6.45682149568641   -0.25243056511218

