42
CSD_code = NOXTUR | q = 0 | S = 0 | Stoichiometry = C13H20N4PdS4 | MND = 4
Pd        1.85550861618305    7.29206374616395    1.94765640869505
S         2.99517941130572    7.12077721726396    4.00422835768894
S         2.69613517300019    4.24179327270508    2.36828117657264
S         3.50620891848675    5.70509375250431    1.25510034293679
C         0.91687385244976    7.33212864434825    0.15109733909336
C        -0.49386160828128   10.72691561342058    1.93116838564117
H        -0.79902936785267   11.56686464508655    1.34149604225777
C        -0.15551399591729    7.04469417542716   -1.76881317217973
H        -0.63270317771449    6.51032843324679   -2.56350880865363
C         0.65466732060907    8.88362516921758    2.45963311470783
C         1.10790748548922    9.76246307985557    0.22433211390483
H         0.82123659620214   10.62193526465928   -0.38754369117025
H         2.20263484962127    9.74885591561047    0.37913213736924
N         0.72127009269698    8.53571788440317   -0.43511444257052
N        -0.18635574643998    9.18069778249173    3.45723737589718
C        -1.04715943996605    4.43649926198388   -0.48581284147531
H        -1.74076700275992    5.01930560374602    0.11691836549737
H        -1.05329419552979    3.41332760654111   -0.12211128993927
H        -1.39070295959181    4.43486585563672   -1.51815785551291
N         0.36951649266894    6.42620330957789   -0.66443702705038
C         0.05319166480687    8.37493576668132   -1.62287316394882
H        -0.20132707127432    9.19673564667703   -2.26024850948226
N         0.46168286134234    9.83485007268291    1.51320511857823
C         1.35102206125663    4.28247341667624   -1.28716202504227
H         1.05808794676892    4.37815241543208   -2.33100763097800
H         1.38881176543436    3.22931891765346   -1.02579062244690
H         2.34592256954228    4.70238012364536   -1.15375911186632
C        -0.88827283098203   10.31978498557599    3.16069603616651
H        -1.60579418443907   10.75201991229279    3.82608384607009
C         0.36407114841318    5.00133059788265   -0.37369423563172
H         0.70750979980196    4.91127628491234    0.67101046910549
C        -0.28487075626381    8.38835107391025    4.67278302309522
H         0.18034138744803    7.41896873136129    4.43340132195865
C        -1.74190133536403    8.16258313159307    5.05779231722845
H        -2.20366953670011    9.07969870284026    5.41718149214291
H        -1.79053585250125    7.42402240165489    5.85243664006934
H        -2.30911247967794    7.78898075464373    4.20785954519362
C         0.51053406147400    9.06032464133093    5.78789338674159
H         1.55413272556691    9.14597297229211    5.49195156695641
H         0.45966645502980    8.45667884433993    6.68884387886094
H         0.11573940902473   10.05152981960117    6.00326722171565
S         2.02881887663135    5.37087455242754    4.16274740380578

