37
CSD_code = NOYBOU | q = 0 | S = 0 | Stoichiometry = C17H15IN2OPd | MND = 4
I        19.79072234714054    3.49724625101066   17.38297776399047
Pd       19.65667286300336    2.02295941949815   15.32459495221755
O        21.58460021648308    3.32758320432474   14.00941781798034
N        19.49512472166400    0.91355566323738   13.59772912250312
N        17.57906110369464    2.36380117315348   14.80913559660118
C        21.58247262150701    1.60361527470685   15.57172097780677
C        22.20672278968705    0.65923341534591   16.35916265406353
C        23.59230111833121    0.52572555884150   16.31127399760336
C        24.33874738195447    1.34881220840447   15.49258260389504
C        23.72681425079097    2.31512031846329   14.70206924972637
C        22.34923282995081    2.43685176349753   14.74691091411991
C        22.26090585940950    4.31898578825055   13.27571856031189
C        20.50395841485527    0.29586772891306   12.98418671059023
C        20.44927089058537   -0.10233832895999   11.66166219069229
C        19.29802258773807    0.15975261362420   10.93077507268745
C        18.23965032176908    0.77797870995334   11.56811672003171
C        18.35360510178830    1.13428326509473   12.91228219342198
C        17.24928031352216    1.76051583126319   13.65321974645289
C        15.92407115663491    1.71347944453414   13.21806220379964
C        14.93872242174812    2.31389099893714   13.97992166450191
C        15.29761010272921    2.94537916390698   15.16180810725700
C        16.63023265106207    2.93868078690642   15.53836891391586
H        21.62521477336052    0.03146243645889   17.02680096072672
H        24.08100881364209   -0.21420648178533   16.92779679274147
H        25.41421131721874    1.25315305130539   15.46622064030170
H        24.33154843168205    2.95511965273863   14.07753004437269
H        22.85196225331405    3.87958565328806   12.46321084690831
H        21.49199391312842    4.96432475331801   12.85182151355791
H        22.91385721095991    4.91349538312848   13.92244259694400
H        21.39103178733256    0.10897771185372   13.57858495983170
H        21.29478093967986   -0.59861856013970   11.21316381621232
H        19.22738858738765   -0.11367094952188    9.88925287335934
H        17.33802356422015    1.00357648960130   11.02177481876688
H        15.66355010887363    1.19771868818189   12.30787713173075
H        13.90842877578002    2.28449203751965   13.65877673558077
H        14.56203514211640    3.42836944880546   15.78419406491827
H        16.95116231524911    3.41574043233592   16.45735446987111

