43
CSD_code = NOYBUA | q = 0 | S = 0 | Stoichiometry = C22H16I2N2Pd | MND = 4
I         8.44135773223891    2.47650803996670    1.23624650858639
I         3.52211343606382   11.34386295180356    6.68391894275651
Pd        6.14378443114200    1.64515964161504    1.89206008184004
N         4.23814104337442    0.91343959374163    2.29563337248681
N         6.29793507358093   -0.41772090392306    1.17186540393117
C         5.79605097180381    3.40965103722493    2.71802927765255
C         5.24508155815222    4.43632083166455    1.96063596710094
C         4.89114250679194    5.63101016880842    2.56301426308003
C         5.09911662346582    5.82587150907166    3.92723710252335
C         5.66876026960171    4.79745796903995    4.67548923277228
C         6.01492298804870    3.59846805152444    4.07661409276867
C         4.73539554400146    7.10010328256437    4.56254280221463
C         3.55162333748732    7.75324528575500    4.22517197950443
C         3.20413227071943    8.95068651131059    4.82115287106985
C         4.04864056624083    9.50775874550818    5.76365004397794
C         5.23144483521781    8.88335502258128    6.11451979258129
C         5.56784131890988    7.68441487793809    5.51513676119450
C         3.20741610498759    1.64154355103690    2.72403311491907
C         1.91048063191501    1.16380241709990    2.75521487046885
C         1.66274922249307   -0.12666947380966    2.30753857250770
C         2.72879141054745   -0.88930608495027    1.87061348004513
C         4.01674758813400   -0.35312186023334    1.88658090733638
C         5.19014528310168   -1.12685803989490    1.45092953896934
C         5.18049428134865   -2.51814460021881    1.34523454550595
C         6.32296607308579   -3.17336665713586    0.92265276743616
C         7.44981425900863   -2.42570701267214    0.61569735751877
C         7.39162184784065   -1.04949448952658    0.76378412251032
H         5.10603070672899    4.30834558611685    0.88739697686368
H         4.48221458783649    6.43262425039174    1.96444909728486
H         5.82755092954783    4.93220962796734    5.73607843790301
H         6.47229973857590    2.80853066109047    4.67183681409431
H         2.88387335031538    7.31233402213550    3.49959521099013
H         2.28142599651272    9.44245582107131    4.55276500081489
H         5.88982516576667    9.32687088992090    6.84587166584697
H         6.50078743460161    7.20704838508389    5.77472833749087
H         3.43112708808540    2.64762046618994    3.06041196972632
H         1.11285821253437    1.79323225931108    3.11502166781958
H         0.66122820762887   -0.52811214704222    2.29796727892034
H         2.56131612086877   -1.88785412309834    1.50102240960477
H         4.30128687973441   -3.08331420846699    1.60922141312387
H         6.33293397077569   -4.24953368842403    0.83830466565026
H         8.35862798159092   -2.89555764820749    0.27674754578893
H         8.25260241961308   -0.42897051992266    0.54208373480834

