53
CSD_code = NOYDUA | q = 0 | S = 0 | Stoichiometry = C14H32N4P2Pd | MND = 4
Pd        2.41447295648509    3.69404271029544    0.74823650114383
P         0.73683505033038    2.33828598402314    1.41307208328393
P         3.52297739710381    5.21792341978487   -0.48862487061421
N         4.08684483900705    1.60326752645863   -0.49980155193235
N         4.11274146410294    0.60653282461785   -1.40421784581358
N         2.99525220819819    0.61717558557701   -1.99939656959417
N         2.20465081858563    1.59008080326849   -1.53183206306716
C         2.87642021033712    2.22648183127222   -0.59073958266193
C         5.19515530353094    1.93797855354859    0.36225086053116
C         6.30296461972461    0.89746079012925    0.21796169171491
C         7.48224093740375    1.25009206342064    1.11817766855843
C         7.03540691122483    1.34837083578475    2.57386394299078
C         5.92553599965591    2.38595565334661    2.72073806191574
C         4.73985095495144    2.03687847762920    1.82651275634768
C         1.97162571954696    5.12915647390629    2.21323442898341
C         0.98227255912034    0.52726443584182    1.53090458726956
C        -0.50475219979972    2.47611729394352    0.08184320692701
C        -0.27268217030600    2.63822734817504    2.91588215787271
C         2.25044032848231    6.42516188875420   -1.01064489027884
C         4.87343834813816    6.30572631356952    0.11291648313518
C         4.18464962826877    4.72002088894177   -2.12613296573697
H         5.57947686899391    2.92871387533139    0.05564732525278
H         6.61697155887205    0.84254999232278   -0.82539614938097
H         5.90359499064401   -0.08122029172138    0.49062346907944
H         8.25902918384985    0.49048299347980    1.01622007302221
H         7.90785096311223    2.20685342396387    0.80453565515992
H         7.88277069635935    1.61947640555602    3.20665116233841
H         6.66775849535229    0.37483274592181    2.90560025252224
H         6.30840593463815    3.37142804993735    2.44317884367249
H         5.59659799481065    2.43827038778742    3.76026366965326
H         4.32058843710889    1.07211962727923    2.13042303829069
H         3.94997881739999    2.82618252412052    1.92242224050066
H         2.65681360165832    5.98626440491701    2.24920201376495
H         1.99653054489772    4.66544426596936    3.21104459145694
H         0.95960451322215    5.53717415766721    2.07063681247309
H         1.41528195261210    0.16179366495296    0.60194342315338
H         0.02375632344443    0.03644098968965    1.69779348991632
H         1.65554517810312    0.29739657425497    2.35638280047128
H        -0.79658694194708    3.52384307248682   -0.01574215971105
H        -1.38082052464435    1.86341234691476    0.29450587467379
H        -0.02681248371332    2.15158574947835   -0.84499485848668
H        -0.62126069250850    3.66871560346235    2.91821215369246
H         0.33416980915475    2.47285177043890    3.80461292273637
H        -1.12744774558963    1.96258181601044    2.92875262313166
H         1.42560745362419    5.86529068365505   -1.45762321243860
H         2.65185094334199    7.13552991982797   -1.73368437394585
H         1.87809070316423    6.95530175253623   -0.13521681879245
H         4.56766352637447    6.79320050434882    1.03598292683706
H         5.10418279424414    7.05940082479009   -0.63931588714578
H         5.76277928633931    5.70973572290526    0.31333063686237
H         3.41707682987283    4.15471220927823   -2.65501288221737
H         5.06154407203379    4.08448520684734   -2.01114530475475
H         4.45596503107204    5.60234732330258   -2.70603844272456

