65
CSD_code = NOYGUD | q = 0 | S = 0 | Stoichiometry = C24H20F12N4O4Zr | MND = 8
Zr       -0.00033869432125    3.39682397421444   -2.27490421273241
O         0.15501167555460    1.58508140289971   -3.18293068264204
O         1.52617828238127    4.37849836128755   -1.36295708127606
N         0.56961256696411    2.15342962480700   -0.17577599201050
N         1.33122952561051    3.70516418995772   -4.36578807090823
F         2.73607059638920   -0.58484137570903   -3.82533778671269
F         3.36271086339599    1.46745886971377   -3.68319977206249
F         1.80966525581234    0.91472658740492   -5.05772638618000
F         4.82670763667702    3.65404992391828   -0.72481801998902
F         3.07918538673083    3.50898828699031    0.52072998071073
F         3.56465294154780    1.91606437361494   -0.83320807154875
C         1.23514392866795    0.96207123055143   -2.76456085002752
C         1.28872570960357    0.46440561636109   -1.53780463936691
C         0.71152797366215    0.86032710312442   -0.33631554703697
C         0.35128772679851   -0.16744461256343    0.69419323542851
C         0.03313913705175    2.63210601164396    1.06889390159086
C         2.28305898387555    0.67348330070770   -3.82626737079609
C         2.68190083325130    3.90513950939521   -1.77648738814957
C         3.10987531428635    4.16273074124451   -3.00356654897677
C         2.44317748114296    4.37970850870857   -4.20481720408126
C         3.03871140418572    5.29234114026714   -5.23466072834358
C         0.62399065179346    3.84021923642219   -5.61022868328429
C         3.54932962101880    3.25830157364276   -0.71014621617973
H        -0.70560975690708   -0.07980334436716    0.94381927062849
H         0.92857328123506   -0.01095811211640    1.60516236746410
H         0.55054854824031   -1.16386178076247    0.31321679462820
H         0.67290521719346    2.30152306464812    1.90025471616284
H        -0.97184232937520    2.22241642780623    1.23506938135573
H         3.94914244943118    5.74268907359478   -4.85254095443006
H         2.32437061639342    6.07592866796900   -5.48502084509231
H         3.26827572016783    4.73964742637642   -6.14538895266459
H         1.27611108675488    3.53831865337536   -6.44281147933053
H         0.33319485539082    4.88633283080268   -5.77302700961367
O        -0.15605189938575    5.20877942495968   -3.18197437265545
C        -1.23652008422956    5.83130162588521   -2.76372041184690
C        -1.29071782108614    6.32854861512821   -1.53682344236838
C        -0.71267585201699    5.93285317618278   -0.33561498733269
N        -0.56893980591872    4.63992338834645   -0.17557260713210
O        -1.52553687455492    2.41421398419246   -1.36182870663976
C        -2.68158782454414    2.88593999841223   -1.77628438248149
C        -3.10911606102745    2.62617385111499   -3.00306484712418
C        -2.44221466246531    2.41046836255269   -4.20429382759664
N        -1.33224989676649    3.08839826960319   -4.36578462675182
C        -0.62545815534608    2.95564355217354   -5.61069012187957
H        -1.27810806088352    3.25899028551797   -6.44235208271551
H        -0.33451315263167    1.90989042063222   -5.77564736690438
C        -3.03521255634268    1.49583740619972   -5.23380023189749
H        -3.94376163821863    1.04221915184685   -4.85108513126378
H        -2.31826698663485    0.71477753272716   -5.48463570255225
H        -3.26733139904930    2.04772568243660   -6.14436416951168
C        -3.54942916045480    3.53385273551774   -0.71096084814861
F        -4.82569921776599    3.13436863227224   -0.72221981096845
F        -3.07662223896178    3.28890555690545    0.52005319347133
F        -3.56877331908865    4.87560995380125   -0.83885525581264
C        -0.03114787991676    4.16164937533895    1.06871437546027
H        -0.67001310576760    4.49242195935882    1.90067923897008
H         0.97395246122877    4.57150751461498    1.23367303770496
C        -0.35346697580964    6.96080614800388    0.69509398983060
H         0.70372886956980    6.87478230732506    0.94400793613710
H        -0.92990235061561    6.80301847742653    1.60638320847222
H        -0.55461037593963    7.95706010027421    0.31465938937880
C        -2.28424633148909    6.11937608501482   -3.82570149573656
F        -2.74432804144954    7.37506253828428   -3.81937806392898
F        -3.35971346988091    5.31858686365103   -3.68816513929511
F        -1.80769062315940    5.88654053837007   -5.05759589141076

