74
CSD_code = NOYKUJ | q = 0 | S = 0 | Stoichiometry = C30H34BN4O4Rh | MND = 4
Rh        1.59729450916423    6.52027062926117   10.43860888453334
B        -0.46586416129543    7.45050936481608    7.96188723029598
C         4.34953934766829    7.22089992631421    8.07476655356679
H         4.49974011117081    6.72937966193971    9.03607576519576
H         5.28653561974962    7.67069217599978    7.75516244202951
H         4.04830596057382    6.47152821710759    7.34527460207872
C         3.26821643127492    8.29016318352638    8.21936090814468
C         3.72102545130257    9.38955668175636    9.18206728264282
H         2.90126899504238   10.07768668982155    9.37873824604114
H         4.55057618094327    9.94188243273238    8.74533374742991
H         4.05078899208224    8.96320883336537   10.12393207916559
C         2.84589250763587    8.90010406528218    6.86109869561177
H         3.01013154882724    9.97916096299006    6.80984667372255
H         3.34091006786545    8.42333419439540    6.00903022177432
C         1.08109714501884    7.92622147976006    7.82995298318437
C        -1.53257157226550    7.77772321220723   12.54930587703619
H        -2.26635330969157    7.09690997744677   12.12213914248274
H        -1.98591582046269    8.31552070836302   13.37861368490719
H        -0.69205955639974    7.19095122965379   12.91726758034722
C        -1.03004473934986    8.75264705891184   11.48487768619523
C        -0.04037381558831    9.74563827546513   12.09183763332189
H         0.80587550007218    9.20159749659785   12.50593236362648
H        -0.51552658284733   10.32143501123187   12.88275191835047
H         0.32810936113860   10.42692922507767   11.32746081500476
C        -2.18178293461265    9.45572889090488   10.72254058508984
H        -3.17137950989638    9.16581466115882   11.08664488638972
H        -2.09806454515310   10.54606006772309   10.74030581605995
C        -0.98590484049004    8.18430760271717    9.31363260241454
C        -1.16547449095392    4.96054921510599    7.72036746335598
H        -1.87673114507196    5.17556398263971    6.94999025604185
C        -0.82668490328318    3.77957619015407    8.29189947743627
H        -1.16777304482367    2.78056982042288    8.11142854908317
C         0.74153315363959    3.09300350484303   10.05755478373075
C        -0.00678951260500    2.52618081507972   11.08972586578225
C        -1.40727414521055    2.99040270559792   11.35313769656161
H        -1.45077729370331    4.07929196549983   11.34243057407494
H        -1.74949956227402    2.63474503326054   12.32126531964509
H        -2.09145447377403    2.61991576314448   10.58982040602961
C         0.58758101781640    1.55644595652791   11.88133118993836
H         0.02025351723133    1.11659167554023   12.68884824156443
C         1.89758934585653    1.15130585305761   11.66920332371262
C         2.53288431050991    0.12565489775527   12.55663994207720
H         3.26098801356056   -0.46646148106108   12.00707527390620
H         1.78477916335082   -0.53786875525630   12.98344421294644
H         3.05235767184753    0.62180793742205   13.37675712714124
C         2.62202241126981    1.73983900567811   10.64202691529068
H         3.64655617791611    1.43885610284205   10.47676049247861
C         2.06393877197964    2.71064518929445    9.82598708862318
C         2.85682255377454    3.36520734030333    8.73798979905288
H         2.98343066771582    4.42811625486393    8.97541818033816
H         2.33738707055467    3.29486936519809    7.78304634959851
H         3.83625301485120    2.90488799175353    8.64346383839677
C         0.39037757678549    5.39716962628163    9.23224764243338
C         2.79125359405145    7.39523889495052   11.55224530153414
C         1.61496464922355    5.24846251792737   11.76795877656642
C        -1.24750369225839    7.68180399742139    6.57710741470791
C        -0.73140040266280    7.09789524954277    5.41820073038918
H         0.17319190449485    6.50702313088318    5.48394464475458
C        -1.34288680997467    7.24793719741685    4.18777850709424
H        -0.91528843316506    6.78243548836414    3.30983222079992
C        -2.50334500634140    7.99523143792634    4.07852013102414
H        -2.98592416114876    8.11714715348493    3.11876321411648
C        -3.03649830206860    8.58329336254875    5.21094517373805
H        -3.94300533877103    9.16879538412141    5.13777718133845
C        -2.41526205326050    8.42561165244564    6.43904366669900
H        -2.84802242827880    8.89316633757955    7.30922293861204
N         2.01418255138896    7.67270868615537    8.67506472277844
N        -0.37909674237263    8.00167441470732   10.42025559845142
N        -0.41270825608908    5.93581682527895    8.30206596403468
N         0.13626369430812    4.06629242868071    9.22285019251025
O         1.44917484546042    8.64766722778985    6.77132122305159
O        -2.04470452163523    9.01024254386236    9.37454265474632
O         3.50938925731719    7.77613118387145   12.36745079527379
O         1.73146344333986    4.56609701257132   12.68840203189891

