29
CSD_code = NOYNOG | q = 0 | S = 0 | Stoichiometry = C12H9O7Re | MND = 8
Re       17.99812864962744    0.31108683073754    7.99075873311137
C        16.23526106230150   -0.53862883074145    6.68028783031084
C        16.35997076801616   -1.38053288805589    7.81758737653627
H        16.51952351015079   -2.44700249123837    7.79787971728219
C        16.06169016902653   -0.60708115195835    8.97060445786618
C        15.74098162251998    0.72363075618376    8.53582486702152
H        15.35027764500452    1.49665427622016    9.17953246046849
C        15.84516094168223    0.76469520259446    7.14000775115372
H        15.55297137499733    1.57653104445183    6.49179227257175
C        16.22502040658603   -0.95483499490875    5.26899634859799
C        15.84112382513253   -1.10542665829565   10.33740671331581
C        18.94284639053141    1.43359959701718    6.71052254851375
C        19.47639514411338   -0.95305820741928    8.03318456952352
C        18.74756591817966    1.29932757131601    9.49182913684411
C        16.57254497555504   -2.74592293223607    3.80100446074776
H        17.35873723011170   -2.25911677114165    3.22000852133313
H        15.61060116229639   -2.55596331994550    3.32022761180234
H        16.76058727891373   -3.81371002046959    3.87685192829243
C        15.97570474639871   -2.98028441374708   11.73439775188705
H        16.16311748270721   -4.04499560682144   11.62198907850367
H        14.95625693501331   -2.80171003409719   12.08283073038243
H        16.67446108409405   -2.54232666982530   12.45038151777674
O        16.56702713645835   -2.24918873749260    5.12970360717249
O        15.91794801305966   -0.23902217506940    4.34657259827421
O        15.39642806241749   -0.44314668433524   11.24362142924726
O        16.16616650946902   -2.40659727570335   10.45105912357216
O        19.41521936505852    2.09273684812874    5.90698886671567
O        20.27774347067465   -1.76684957495860    8.04991561002115
O        19.09883911990411    1.87533731181167   10.41273238115382

