83
CSD_code = NOYRUQ | q = 0 | S = 0 | Stoichiometry = C32H46N2O2Pd | MND = 5
Pd       -0.63403864501425    0.14825536356487    3.56970989335542
O        -2.37488948582753   -1.18994037167875    3.78879414239683
O         2.24062044740481    2.76488608827036    4.62233592418726
N        -0.12435322892174   -2.34824948445695    4.92581077477708
N         0.58408755272823   -0.77820458446205    6.22702743462721
C         0.07416126325333   -1.02521156181827    5.00183265660287
C         0.27935606641391   -2.94293330684228    6.09124809097822
H         0.20398206197418   -3.99813285642967    6.25348643285953
C         0.72015434061681   -1.95614406515161    6.90971418402688
H         1.11472524686405   -2.02156967475301    7.90125387092982
C        -0.84896622899231   -3.00910217439239    3.90195649825518
C        -2.04215074958808   -2.38974563151688    3.43038484485130
C        -2.86867273557763   -3.21619464854610    2.60689745343279
C        -2.41487943191234   -4.46117188953785    2.22692656362069
H        -3.03881230535271   -5.05514228117040    1.58094216464166
C        -1.19436287136736   -5.01189374687986    2.62404732792716
C        -0.43154215251421   -4.26761392629664    3.50176874162671
H         0.50407289678231   -4.63539181948017    3.89388729354328
C        -4.23995027399211   -2.70625908676208    2.17675550691596
C        -4.05911825669297   -1.46611542317764    1.29355560102016
H        -3.54017831044100   -0.69688534611090    1.85485383575398
H        -5.02556776367924   -1.07608960716137    0.97876511187981
H        -3.47854974060137   -1.71460511628533    0.40624168286788
C        -5.05296824783425   -3.73761106521685    1.38811349558218
H        -4.56849348352059   -3.99126758079495    0.44743684274870
H        -6.03003263236897   -3.31686579510577    1.15601557610343
H        -5.20776117036111   -4.64462749965971    1.96849400897212
C        -5.04188034657899   -2.33276516254304    3.43097838574464
H        -5.19541603317711   -3.21207889611535    4.05391850599182
H        -6.01362895309179   -1.92779933520541    3.15375244867789
H        -4.50240095507929   -1.58766449577154    4.00825521059047
C        -0.78626577643600   -6.38552577703415    2.11584882383231
C        -0.72669204214356   -6.36121252451171    0.58207222812245
H        -0.00805924595484   -5.61599284483585    0.24734614175568
H        -1.69458030415127   -6.11612080506519    0.15396127184314
H        -0.42132568675623   -7.33360957716736    0.19986030879764
C        -1.81819506797061   -7.42506395529539    2.57607560365609
H        -1.53187521662045   -8.41853398725972    2.23563781145140
H        -2.80530855279592   -7.20096577773565    2.18157378236037
H        -1.88139308991848   -7.43620455956781    3.66240391322998
C         0.58816184276570   -6.81583339636199    2.63641087943183
H         1.35710500605348   -6.10745972711864    2.33660255421369
H         0.84627606158490   -7.78936573400702    2.22347470744141
H         0.58648935329565   -6.90215816071743    3.72077960190872
C         0.76335453071707    0.57423771769329    6.73186890328961
H         1.37393618424832    1.11408747062437    5.99752411246732
C        -0.61786955319769    1.23502043863901    6.82533524938952
H        -1.12478209172548    1.17973041348345    5.84597831502463
H        -0.51918601183552    2.27608979448765    7.12181366202966
H        -1.23334148099567    0.71968861520531    7.56122716863172
C         1.47371134085772    0.59047714501152    8.07901276338406
H         0.86830757268437    0.11616961943855    8.84874378353507
H         1.64921892873759    1.62103560722530    8.37593336605814
H         2.43479592197421    0.08542304212066    8.01624016614134
C        -1.11476905494278    0.89018391636867    1.61695472828846
H        -1.34681916218533   -0.05906824481089    1.12733276756536
C        -1.92036637516685    1.57726917899758    2.47307177154537
H        -2.91280747314124    1.26449846085047    2.79613599496432
C        -1.55381326378520    3.03977109709230    2.53556205082115
H        -1.48758387415299    3.42667604259383    3.55470986059571
H        -2.34414703554932    3.60997116055118    2.03641828095067
C        -0.23143028186127    3.15266379963507    1.75253371754292
H        -0.31889875055295    3.91788397835728    0.97777721102291
C         0.01769134048431    1.75069803535534    1.13116997884218
H         0.06584986427345    1.77086905040468    0.03861964613071
C         1.37160442258770    1.35381498423142    1.74616262454284
H         1.85849654589899    0.51833831653566    1.24211172309325
C         1.14424455760009    1.12406136550057    3.25369301706084
H         2.02750863977858    0.62877264358136    3.68133275793076
C         1.08023775364028    2.55514991527658    3.82575830010761
H         0.20210513152592    2.74259330798185    4.46724761040118
C         1.05734175042417    3.41957653930338    2.55462544559042
H         1.23411823064211    4.47860647713207    2.74117297401835
C         2.11247757971042    2.69338120578430    1.71782942932347
H         3.07608461518118    2.65561211907918    2.22196940711183
H         2.22932141608698    3.10120539683575    0.71463665241778
C         2.23912879033785    3.94448041882082    5.39088374373117
H         1.30648774212346    4.00701114145178    5.97720868391866
H         2.28849201207916    4.83342017242665    4.74520020754686
C         3.44537956818673    3.91539805164298    6.31729154287631
H         3.40021228293329    3.04133286833309    6.96119494962391
H         3.46794288797083    4.81277361381961    6.92946634512060
H         4.35708164389298    3.86107693110567    5.72934295382374

