112
CSD_code = NOYTUS | q = 0 | S = 0 | Stoichiometry = C41H59FeN7O2Si2 | MND = 5
Fe       12.59178789310684    9.68063841107436   13.79604723511844
Si       12.01805909033299   11.67613415796964   13.06931770707629
Si       11.77085462727176    7.69297946134372   13.32801524218966
N        10.61625466584975    9.85297123593866   14.54893475106529
N        10.70913683957246   12.12891081139507   14.18330690734785
N        10.38702116536163    7.55985779062969   14.43019031855743
N        11.47689969432226   12.71497585175075   11.57674738371162
N        13.04055998936163   13.24153027855733   12.88829798407215
N        11.26622500130958    6.53676851215756   11.90664388287426
N        12.53368465705429    5.98861397694018   13.50074371937574
O        15.30518773212570    9.48841455566810   12.78400022510707
O        13.40639043285063    9.87407927916515   16.61093368646900
C        10.09903916642770   11.08084329149452   14.79663210770988
C         8.96005539177659   11.22592634117292   15.59430507180274
H         8.56202197481552   12.19653765514844   15.83050646260219
C         8.33546831037435   10.09700291051493   16.08452866247674
H         7.46860849729788   10.19242241575085   16.72227336668012
C         8.79229739265596    8.84650160367701   15.72211091399720
H         8.27105527401949    7.97065410147981   16.06577645114259
C         9.92923106046148    8.74499851005059   14.91477118960667
C        10.21809562810778   13.47533673446197   14.36755055490465
H         9.12524789369165   13.49664093272941   14.27286393470831
H        10.63247096689581   14.07648641130813   13.55656421353231
C        10.63860040507130   14.08710624290220   15.70346260489396
H        11.72054979544682   14.17286477901896   15.74898992888768
H        10.31535661179351   13.46609681375541   16.53478947913895
H        10.20364258642869   15.07853533273459   15.81465721027014
C         9.73543121874330    6.31955174654188   14.78606219118518
H        10.44723039559881    5.51786607769666   14.58291630922220
H         9.51710287824937    6.30795319378097   15.85964290027384
C         8.46102118355300    6.05271925410079   13.98498066359101
H         8.70985554800518    5.93336455450580   12.93447385324070
H         7.75911852419861    6.87742952906442   14.08207664456427
H         7.98250088824361    5.14123482302168   14.33781222937433
C        12.51425905828372   13.51311892269618   11.71036250157173
C        10.58032930872678   12.48252005372852   10.47084522929167
C        11.23251886353443   11.51183632473320    9.47770430056065
H        11.56278943226301   10.62056301212496   10.00484133066930
H        12.09351237552357   11.97573690718708    9.00308886697193
H        10.52187051622504   11.23022986971212    8.70465943857567
C         9.32657652298425   11.83548057062747   11.06983924559506
H         8.82361280855159   12.53666865241167   11.73044379184348
H         9.60211471544987   10.95960542497365   11.64988867202281
H         8.63823556052476   11.53962294629781   10.28251951939293
C        10.17453027256687   13.77615337765348    9.75377974218172
H        10.99733751932726   14.18734352410546    9.17552781695642
H         9.84690383366974   14.52237426266784   10.47427546187765
H         9.35070565370598   13.56883178973869    9.07473203795896
C        14.27166403907397   13.72709130595981   13.47317348735739
C        14.44862378638580   13.01975557283695   14.81692575285998
H        14.59670846958055   11.95501596004794   14.65824376776108
H        13.56584668144053   13.14354426179775   15.43606312689121
H        15.30822410434239   13.42548658628674   15.34434267360907
C        15.47433129521490   13.38648502414496   12.58421262285624
H        15.45636001850868   13.95572578674878   11.65807460705162
H        15.46433618288331   12.32473852049191   12.35018648776681
H        16.39683679022314   13.61777485812546   13.11087551298415
C        14.19762723818706   15.24411528457669   13.70291100710640
H        13.29406825358846   15.49664034676622   14.25384211181982
H        14.19533706601097   15.78432285815970   12.75930230881103
H        15.05829896405699   15.57114193776344   14.28112469794023
C        12.99251609912089   14.49281283049113   10.72128934863629
C        13.83155672593713   14.07897173795601    9.69071393375020
H        14.14182388141429   13.04514909449837    9.64273094728867
C        14.27175482627230   14.98817678718446    8.74561007878395
H        14.92426830661272   14.65982011261620    7.95016778248805
C        13.87958558237707   16.31467288975110    8.81925449960773
H        14.22401759544581   17.02240580790328    8.08021949776404
C        13.04506848220597   16.73141770360533    9.84307282813957
H        12.73752315269117   17.76489708575327    9.90372645530051
C        12.60212547370286   15.82654850639647   10.79103488143329
H        11.94510609121474   16.14980247643979   11.58553715299222
C        12.14231093316976    5.63156552867860   12.29678544739555
C        10.71285355979351    6.78044012466053   10.59420346086340
C        11.82128666046461    7.21876475847317    9.62707943752092
H        12.48850345096710    6.38998714958944    9.40450961569831
H        12.39788291591688    8.02332837247984   10.07812480016679
H        11.38731077412004    7.57010348255591    8.69409093334297
C         9.71437523091953    7.93002261025475   10.75367278938236
H        10.22894116604339    8.79931125801368   11.15331177890777
H         8.92186302487787    7.65643037596038   11.44393435983473
H         9.27179697045412    8.18232819044593    9.79349310388846
C         9.98665490316311    5.54906092957132   10.03550556033994
H         9.26967324361774    5.16785094979643   10.75943530496372
H        10.68671120247356    4.75493033447628    9.79017173472117
H         9.44910470687338    5.82267701590414    9.13074678139881
C        13.54086129720291    5.42368481528509   14.36989103368770
C        14.93808197812888    5.77539099091244   13.84523808964843
H        15.01064217113479    6.85064951366316   13.70049098129044
H        15.13324461955009    5.27670656163562   12.89890012668339
H        15.69438176031809    5.46351250418329   14.56102265215454
C        13.34919926432692    6.06635782183708   15.74548384274216
H        12.36257466445412    5.83892017931799   16.14002719004547
H        13.44675890342584    7.14564259886245   15.66145225225167
H        14.09779192959618    5.69482320852426   16.44040928101971
C        13.39280451036513    3.90151738096094   14.50135739076763
H        13.67172268556716    3.39294269197334   13.58210574523262
H        12.36568080712012    3.63918875692088   14.74817728856885
H        14.03923523235445    3.54266740711980   15.29843989472132
C        12.59199343137913    4.45713984760307   11.53176031550380
C        13.73810638348974    4.52933077957594   10.74677229194319
H        14.29672245187073    5.45322992729196   10.70305651562514
C        14.15700054963836    3.42350062639726   10.02753457732803
H        15.04814098179764    3.48664004356580    9.42072707639250
C        13.43890834991860    2.24089016698222   10.08542107202036
H        13.76903953499236    1.37961459324744    9.52422296919715
C        12.29608691920749    2.16476491247355   10.86489826634675
H        11.73325704495286    1.24430103822097   10.91211908855368
C        11.87200182480271    3.26682740124205   11.58440669266438
H        10.98157070345448    3.21117353355033   12.19344865044591
C        14.20880284669027    9.55551939480901   13.17534718320737
C        13.11645148339876    9.79101567044479   15.49085491025794

