68
CSD_code = NOYTOM | q = 0 | S = 0 | Stoichiometry = C22H39Cl2N2OPPd | MND = 4
Pd        4.05063949370464    4.88440243596926    4.55582986007822
Cl        3.32263807553465    5.56583534726112    2.56452212411390
Cl        2.27453460105091    3.49425389617937    4.75176263099675
P         5.84950851585141    6.16191799902904    4.88374419715001
O         2.62444022008853    0.61664693973563    9.65903631047164
N         4.97976615194092    4.36458182193846    6.33356431602685
N         7.11820992546537    4.90922937313614    7.24468510648258
C         6.06083733792003    5.07358923679861    6.40672156569849
C         4.19271425279606    2.12783807772262    6.77837127252739
C         3.59240399693522    1.22216118478100    7.61928198043237
C         3.21337763348904    1.59127003672610    8.91332872243196
C         3.45287586545171    2.88967365897694    9.34766763929046
C         4.07593664626007    3.79689117707924    8.50841987524246
C         4.46103032119112    3.42612976597213    7.22505301934703
C         7.31072089380831    5.83658350215181    3.73813334552847
C         8.69914368131504    6.22964966489467    4.22495706355205
C         6.96999316272782    6.53815847431438    2.42350359225031
C         7.22138633295561    4.32014754521912    3.52459219686454
C         5.37645972784131    7.94491127193376    5.31761239824773
C         4.22487292577842    7.75379815298792    6.31046817817056
C         4.79779319413779    8.52281222621400    4.02250313453609
C         6.44193250611528    8.88676875072065    5.86887842326008
C         7.37948278923329    3.59031011235137    7.83004154971796
C         8.67259752630501    2.96357054164288    7.29373143984099
C         7.34949764825378    3.55516476511193    9.35571371013579
C         7.83650634317357    6.12546457237295    7.60834849830713
C         7.19709568270552    6.79868790689175    8.83031031953347
C         9.33683568878799    5.97844397088401    7.83944124615342
C         2.12864984386652    0.94984508354967   10.93169854172750
H         4.45646301834492    1.85497603126559    5.76461014418434
H         3.37801313890146    0.21859843272427    7.28976042115181
H         3.14999241654175    3.21593071472666   10.33017093084633
H         4.22845937908496    4.81591052956556    8.83743815929256
H         9.41933801159818    6.05144482217957    3.42687655614753
H         8.75171797091532    7.28306777017759    4.49008519237541
H         8.99510698937454    5.63283100017727    5.08205544198866
H         7.58267209343777    6.13345541074827    1.61953789895022
H         7.16234700268105    7.60653536704830    2.48493873627578
H         5.92002268047455    6.37335275549489    2.16918196687770
H         7.91971158072368    4.00702837971831    2.75025195652755
H         7.45805813203095    3.77545004725181    4.43990724312552
H         6.20382691449659    4.04043898941019    3.20205292195126
H         3.75670953387442    8.71153654535933    6.53122632174674
H         4.57040207128505    7.31855419818998    7.24823285981772
H         3.45705982788912    7.08867679527186    5.87525687926507
H         4.18423568895623    9.39164157908009    4.25535767486322
H         5.58147297252871    8.84127678580088    3.34109024081668
H         4.16629892723443    7.78659419199926    3.51657374561499
H         6.04024625692687    9.89966996344036    5.87325695450072
H         6.72103745300412    8.64248119844030    6.88912812333522
H         7.33185717162760    8.88927028210972    5.24299646943065
H         6.56246399702326    2.95370662665024    7.48077358444980
H         8.62377281002732    1.88744385930405    7.44130517101175
H         9.55398139271142    3.33127192471910    7.80844965577211
H         8.78063154679097    3.15126015070429    6.22789436425915
H         7.39509522876859    2.51755903385038    9.67726450294232
H         8.19405100070760    4.07965399019765    9.79285636443420
H         6.42372313930466    3.98231559013907    9.73064494947507
H         7.69342170835936    6.78550112500104    6.74174999746815
H         7.58382441300975    7.80931181156053    8.94089891918154
H         7.42023936064219    6.25312853633946    9.74173747910892
H         6.11643063761678    6.85119783020286    8.71941615595159
H         9.76335157787527    6.97431406264101    7.93900517437715
H         9.55154521005150    5.43390570635261    8.75364117933738
H         9.83170134897533    5.48451219873856    7.00956448737479
H         1.66408362451164    0.04248705514152   11.31432686392704
H         2.93194434291198    1.25678243089985   11.61068428039056
H         1.37710844409359    1.74368878471647   10.87477777330113

