67
CSD_code = NOYVUU | q = 0 | S = 0 | Stoichiometry = C22H36Cl2F3N2PPd | MND = 4
Pd        8.23392164873723    8.58726280835742    3.87789781525583
Cl        7.59997281791322    6.55650141311334    4.67598171787065
Cl        9.85434928861308    7.59234869241618    2.61660745639394
P         7.32678001350012    9.88183058709286    5.45460187023855
F         9.48597951101366   16.97115269648031    6.72261237109514
F        10.77507704658305   16.83162071917653    5.00587792515225
F        11.39137389848887   15.98530267403938    6.88359295135849
N         8.06481639293372   11.18092406557603    4.54490662235978
N         8.35760542244804   11.07930833662414    2.19177487778996
C         8.40590841848867   10.49011410842025    3.36831449170590
C         9.90007880443294   12.73728132659654    4.56815463578604
C        10.45101862998546   13.94243341441960    4.94352407982487
C         9.69954042083467   14.84451020916018    5.69032522567205
C         8.40225728676198   14.52901108178198    6.07127939605507
C         7.85164351309217   13.32230527841107    5.69163535617833
C         8.58492720562313   12.41625080008059    4.92557505637179
C         8.30069568114282    9.71621415799484    7.05623626802361
C         7.69300645770377    8.50746364793219    7.77013580408044
C         8.34411857336198   10.94029190641708    7.96647659578746
C         9.71920116254574    9.35743946379706    6.59286968109239
C         5.48077355122686   10.25083685714954    5.62865303299500
C         5.01708505350218   11.02274011773406    6.85746786324396
C         4.85534017063674    8.85110388218740    5.63454138715450
C         5.08037652852232   10.96044367719435    4.33609526436160
C         7.88298710092050   12.45791637568199    2.00292257194799
C         8.96188226054032   13.41425768571747    1.48644641429019
C         6.61772127488044   12.53815737163990    1.14837829349513
C         8.61064935968492   10.16605152465304    1.05034268755735
C         9.18015438637128   10.81284921624840   -0.20271912721154
C         7.36392577834721    9.32675158646080    0.74760679045009
C        10.32583472765426   16.15067537489110    6.07751735930415
H        10.48122757046477   12.01821626172073    4.00936159655950
H        11.46572497312546   14.18738542114179    4.66997527230067
H         7.82481128621442   15.22859588845801    6.65521547541259
H         6.84191920423889   13.07787920392347    5.97789324081965
H         7.57204431996823    7.68034785651314    7.06495934009356
H         8.35476806233247    8.17813284896224    8.56939117456755
H         6.72778783205403    8.74684865217662    8.21207182365865
H         7.35106419423171   11.27180328033946    8.25432658176241
H         8.88464592492200   10.67945942922836    8.87573944799852
H         8.86707142925737   11.76868452001475    7.49421849228648
H        10.18027317717611   10.18369883822740    6.04693069731397
H        10.34352648551878    9.13831687340979    7.45768098929135
H         9.70717850924243    8.45880486765115    5.95105345011636
H         3.93491642363245   11.14282829371764    6.80903866805946
H         5.24803317821056   10.48050299680074    7.77080197844654
H         5.45637896135886   12.01507251837576    6.91899739461239
H         5.22574348048732    8.26029691749741    4.79292127606790
H         5.09791968813754    8.31142043086684    6.54652864829757
H         3.77177176247711    8.92349598696754    5.55775328904173
H         3.99572553541196   10.99518073896305    4.24903704165036
H         5.45943470970191   11.98077616459068    4.30012025017885
H         5.47306472193020   10.40446484228401    3.47964833139415
H         7.59647296230603   12.80654457474057    2.99814847468460
H         9.02586616094391   13.40169136707274    0.40403046280960
H         8.71726611027336   14.42762712758182    1.79705927270283
H         9.93471365979602   13.16330611410218    1.89885979373822
H         5.84338695980855   11.88517149004288    1.54254348199784
H         6.24901021472696   13.56124143670355    1.18131198034943
H         6.80204471804796   12.28335868298965    0.11070600362613
H         9.37481381031202    9.46368271750687    1.41288748133140
H         9.46145033844937   10.01026459861077   -0.88014239331334
H         8.47017440937515   11.44871994685310   -0.72326846353978
H        10.07814071605754   11.37877389042925    0.02472783615204
H         7.04636687882481    8.78337151866265    1.65954730993519
H         6.53595200436524    9.92297219586057    0.37423682754257
H         7.62250724030783    8.58131044950584    0.00035473626340

