67
CSD_code = NOYVII | q = 0 | S = 0 | Stoichiometry = C22H39Cl2N2PPd | MND = 4
Pd       -0.48265175348749    6.01381471742709    9.68098411068427
Cl       -0.59774191977930    5.45988952172370    7.48118430935259
Cl       -2.60143233071034    6.87240650162700    9.59387753103460
P         1.70444319689860    5.95807885916601    9.98369605345789
N         1.31619271305000    6.76804568145880   11.49206356751432
N        -0.75353287871294    6.53134158370866   12.68623803980751
C        -0.03154584278037    6.49095869328008   11.58534018772044
C         2.17090607567824    7.56645554051401   12.30026497436332
C         2.01450669472427    8.95286680200915   12.30610268403353
C         2.87615227710082    9.75198181782000   13.03138321711457
C         3.92394940503017    9.19995911994796   13.75875049531679
C         4.07356061550444    7.81782468393985   13.75222159903556
C         3.21155111764197    7.00834083681431   13.03727492690831
C         4.87624339881462   10.06138450894133   14.52743811942970
C        -0.34988576853542    7.28026434133299   13.88311354563570
C        -0.94049268206069    8.69540909893908   13.85061800708690
C        -0.63485893785622    6.60113326561567   15.21820671920266
C        -2.03677780703264    5.79974331961450   12.62435743069583
C        -3.25486565232943    6.63827361702336   12.97941055879159
C        -1.98196366962931    4.48532550932042   13.40888986514388
C         2.55605452714793    4.32363080387672   10.39493268987127
C         1.77856503198008    3.76072777375002   11.58546630337367
C         2.24921511696797    3.44285554852576    9.17859802837602
C         4.05663246451690    4.36836050199565   10.65653010769369
C         2.69257050708200    7.16895177699765    8.94337958162302
C         2.92388948033806    6.45645214565347    7.61000501659935
C         4.00351723640442    7.67944023421932    9.53422824959932
C         1.71183393661011    8.32585188419880    8.71609872549393
H         1.20138681297009    9.39589712184016   11.75025070695649
H         2.73471596159050   10.82276075736476   13.02442137918535
H         4.87506674440473    7.36708792677795   14.31962948633533
H         3.33011451652399    5.93658866049345   13.07266706402435
H         5.00949143528358    9.67831742844366   15.53763810416965
H         4.51731296110634   11.08566098381361   14.58380137771901
H         5.85264058479228   10.06531926506846   14.04275257264886
H         0.73646900056082    7.37100229987197   13.82019110995219
H        -0.32918407071678    9.36151910747658   14.45548143355492
H        -0.96294514304955    9.07343022004731   12.83161582955171
H        -1.95359025738109    8.71140354971993   14.23900468506262
H        -0.19866081845387    5.60665286354404   15.25279954665896
H        -0.17333458962205    7.20030139896430   16.00104423632161
H        -1.69644241828353    6.53791610908952   15.43123588618873
H        -2.14740397483103    5.52473332070320   11.56171500672765
H        -4.14313514220183    6.05585206129659   12.74983249712952
H        -3.29224600101308    6.91239235286915   14.03013015718004
H        -3.27789014690081    7.52895089807265   12.35835718125072
H        -2.20325963150291    4.61454707723464   14.46364511673764
H        -1.00550609452948    4.01649101964892   13.30449141934959
H        -2.72474657824894    3.80785005153665   12.99549626918140
H         1.96083632949564    4.32291854378736   12.49993293242660
H         2.05875384931515    2.72307948147390   11.76017099838012
H         0.70426654184448    3.79261332231007   11.36316037072128
H         2.83764431815407    3.73101670738646    8.31221303864620
H         2.46918044697925    2.40106349190933    9.40634721238145
H         1.19135226032243    3.52376908455655    8.90966582206640
H         4.59948484026587    4.59567893773542    9.74208094417490
H         4.39156402221016    3.39186446521490   11.00607545791082
H         4.32101996632729    5.10838945125300   11.40717820795362
H         3.69228736822226    5.69093997603317    7.69521353041223
H         3.24928356314606    7.17379688407386    6.85852715738591
H         1.99098775554904    6.00190105319434    7.26629882956076
H         4.44382983669282    8.39724987932105    8.84266237182444
H         3.84759217251069    8.18212533377338   10.48551374059451
H         4.71873344138178    6.87493018887099    9.68005280399625
H         1.57618577138543    8.91260184827808    9.62344083411232
H         2.09060088283307    8.98848772253703    7.93975615848541
H         0.73120893028002    7.94293046514644    8.38505387809535

