67
CSD_code = NOYWUV | q = 1 | S = 0 | Stoichiometry = C31H29N5PRu(1+) | MND = 8
Ru        2.26455995881132    1.35195322306361    5.85004442082333
P         2.68414924852271    0.44736447523680    3.78410977261372
C         0.20660749002719    1.53254562374258    6.68900165168939
H        -0.46624045317492    0.75525425421990    7.02934997200367
C         0.20910947794560    2.11789981151731    5.40595771427708
H        -0.45706400772352    1.87203645982897    4.58854266379653
C         1.10107562320664    3.23706522958322    5.43260089829270
H         1.16221621123690    3.99188785668485    4.66095836452629
C         1.61563687256951    3.34164869350098    6.74660883686573
H         2.24174500149855    4.14107239549511    7.11953498311461
C         1.09798524216148    2.27840515089807    7.52025934866058
H         1.19448679718432    2.17386157113353    8.59213267774418
N         3.65128261636323   -2.14983937031490    8.09054330130483
H         2.76587845354416   -2.57944301589754    8.29863865551730
H         4.41432076035916   -2.40039980289040    8.69498119703539
N         2.62791185779453   -0.48443609975225    6.81375857312527
H         1.78551512257042   -1.03752356294275    6.95872906261329
C         3.66032935440280   -0.97708624027404    7.39806424291787
N         4.89666019266042   -0.37388284957152    7.30557645894516
H         5.68395738512789   -0.87483752465539    7.69066524463295
C         5.18406127235715    0.80142595976019    6.65434543027938
N         6.47363359950353    1.21986995969983    6.54299369012035
H         7.29864499427936    0.73432683274685    6.85236203394484
C         6.45125345862377    2.41987440106825    5.86193575382433
C         7.45750597674633    3.27511896866388    5.45027425193620
H         8.49548492909327    3.05808297220619    5.64447290052194
C         7.06908005524737    4.42076952513322    4.78269314051732
H         7.82094674326411    5.11407552186807    4.44064345935517
C         5.72363303569961    4.70724096956668    4.55247066237883
H         5.46504144059726    5.62253734691459    4.04319866074974
C         4.71906514556476    3.85539656814704    4.96533728997464
H         3.67853134723233    4.09050023242672    4.81000966460494
C         5.09102791037448    2.68530777453909    5.61446416912008
N         4.32990473802566    1.64538709278945    6.11783437743504
C         2.02794310480741    1.34788199120652    2.34309334524539
C         2.34966113810514    2.69835718585843    2.21924105639250
H         2.98590646813717    3.15565811345218    2.96462399199503
C         1.86281299352181    3.44037910185032    1.16029195997869
H         2.12270847211755    4.48457446574989    1.06727566651795
C         1.03523903874489    2.84436127301791    0.22130544057436
H         0.64847894079831    3.42362344645705   -0.60300063328514
C         0.70023079172362    1.50689732106901    0.34699425894554
H         0.05074418629882    1.04242108618710   -0.37958212539602
C         1.19132212737953    0.75707235724415    1.40231833234878
H         0.92032799468722   -0.28453026547879    1.49152355229433
C         2.03839160502911   -1.23349421357889    3.50816941192258
C         2.61230434544086   -2.11767993009800    2.59875874744365
H         3.49021363333279   -1.82213094746979    2.04150728325898
C         2.05157404152603   -3.36759928399240    2.40666218130639
H         2.49749815705867   -4.05190048446367    1.70068755143122
C         0.91631060267436   -3.74038254773833    3.10944974433884
H         0.48194506375143   -4.71590616784046    2.95298112388609
C         0.33392901387197   -2.85851293658604    4.00586667772810
H        -0.55809730861046   -3.14509548276548    4.54320106736968
C         0.89426329356438   -1.60960903333383    4.20414852460997
H         0.44535467597687   -0.89960372965513    4.88988635787131
C         4.45902458261711    0.23034305954804    3.41065308093562
C         5.11596111273703   -0.77992246351639    4.11370351183447
H         4.53099212217108   -1.45477048561372    4.72863865348773
C         6.48461678103236   -0.93289057730040    4.00443608905927
H         6.98455624994608   -1.73043793654107    4.53617831312293
C         7.21652643497734   -0.06745556026617    3.20514837623722
H         8.28641558634575   -0.18336411091891    3.12126386560411
C         6.57021491696720    0.93620486775540    2.50451904834334
H         7.13666384799681    1.60424276995730    1.87384038736546
C         5.19747846066278    1.08801538746988    2.60496312378693
H         4.70204967285795    1.86519332623095    2.04315850817184

