86
CSD_code = NOYYIL | q = 0 | S = 0 | Stoichiometry = C28H52NOP2SiV | MND = 5
V         5.56053457301688    8.66246117990856    6.75575802037025
P         4.52210141322622   10.75454996354075    7.03213828461216
P         5.86569924178884    6.33499915064892    6.96072114189904
Si        5.69548293343165    8.66938369219897    3.25423200715173
O         4.15091194345504    8.14684043243513    7.91384689885937
N         7.06346842983525    9.17457188375718    6.57529042744778
C         3.65716780221888    8.08156869385747    9.11603728879621
C        10.15084090162104   11.08351226961808    5.59900245558329
C         9.38128335864138    8.52093809989240    6.78978670595029
C         7.15401366645396    5.37284670220782    6.06070304263356
C         6.05218625198779    5.58816779665891    8.63360531332920
C        10.79837141194679    9.07289359526739    6.92466688349103
C         8.49648278673449   10.54747629788041    7.95552620939954
C         4.34271018943293   11.51215696652377    8.70179586239662
C         3.87014293942631    8.27098349163071   11.52443400720973
C         2.54008735600169    7.93111110229464   11.69617358051151
C         1.76736016818270    7.66025925255202   10.58102131181789
C         2.29783895727968    7.72694260000306    9.30660645931619
C         1.42886867426152    7.41556759063644    8.11725027241865
C         4.44206000290384    8.35027197738606   10.26723616955407
C         5.02653818559837    8.52525180039167    4.98886282199460
C         4.51672657075799    7.84665325389268    1.97299925462447
C         5.91237664670799   10.48883768520877    2.67193731239790
C         4.38323827347614    5.42658752927825    6.38080650161750
C         5.89516363229826    8.71981257009768   10.13693735793333
C        10.25232901289091   11.94688407240776    6.85563160561246
C         9.91512739853036   11.09768985392052    8.07997046633997
C        10.90179779219171    9.93513586477059    8.18202554917604
C        11.13543480819767    9.91908057692233    5.69755704769396
C         8.73018240562436   10.54247767190731    5.46097916581130
C         8.36418187847480    9.67748649535363    6.68415631436386
C         7.39550984626292    7.79041220451826    3.10347555318914
C         5.07041724877650   12.22829267140666    6.07871737642799
C         2.75949811524189   10.71743687069415    6.52955666635470
H         9.11968030858641    7.90469300843705    7.65556742540665
H         9.29834066566571    7.90203680688486    5.89405734910070
H         8.25499517203725    9.93626452114246    8.82864929108610
H         7.76804984821257   11.36159730972196    7.89623476918785
H        12.15661297240897   10.29945979214245    5.77785761855564
H        11.07369008978053    9.30606027041264    4.79616741188280
H         0.52727812718142    8.02987223983765    8.12541332643611
H         1.11569259499380    6.36972593709823    8.13343904739964
H         1.96845475249542    7.59939150481391    7.18877443682046
H        11.91953295486741   10.31834374858824    8.28731947860320
H        10.67685091121758    9.33338302967981    9.06559230632879
H         3.75703041111802   12.43062708680785    8.64180084118459
H         5.33030521210885   11.73724110120000    9.10383445272918
H         3.84419084373196   10.80912858722632    9.36860642339670
H         3.97396767388789    8.21148319263026    4.99692224134312
H         6.03005816361185    4.49945725533032    8.56692951849553
H         5.24261140224170    5.92592846784210    9.27936853391872
H         7.00251668317921    5.90413919014335    9.06432247374996
H         2.11228434426197    7.87595568504422   12.68614221293872
H         0.72619073538870    7.38927960406546   10.69772380765225
H         3.54972635903840    8.34062280523863    1.95243612980774
H         4.34303120780212    6.80009824124309    2.20724034305342
H         4.92613852713652    7.89177106532982    0.96854812436838
H        11.26293852672314   12.35121013631986    6.95108408416172
H         9.55980823751423   12.78880404574887    6.78455857202114
H         4.38366607157304   13.06461369925266    6.21388052235590
H         5.12019452750543   11.95090627033071    5.02808910560310
H         6.06559508779613   12.52007237450592    6.40788631262774
H         8.01077631903567   11.36039815728827    5.39000871790882
H         8.63251856388417    9.93369426825961    4.56274710680864
H         8.13990626084169    5.68143260762616    6.40204197013613
H         7.06832777888001    5.59669857210097    4.99974386883465
H         7.03171799295372    4.30158539351244    6.22396111356108
H        10.39316883389398   11.69109176786330    4.71934595473969
H        11.50560806195682    8.23786391473449    6.99693489797865
H         9.98615291144995   11.71557473730224    8.98349520921455
H         6.58418869952645   11.02396840784416    3.33407035710906
H         4.96327695987934   11.01727561649049    2.65390441016262
H         6.32749428735845   10.53252188763053    1.66925137160511
H         6.18894884144546    8.76871434234466    9.08182135441671
H         6.52270820803109    7.98391176302818   10.64468903696704
H         6.08663946748648    9.68849442515864   10.60308760707234
H         3.51357789588570    5.76447466369929    6.93964595151414
H         4.51204424876742    4.35267581193576    6.52587237718908
H         4.23403758656396    5.64066410223131    5.32245933502584
H         7.29330569212908    6.77149126111011    2.74126072240429
H         7.86131912128546    7.75690048483177    4.08318558504849
H         8.06277211074508    8.31108208325375    2.42367464246574
H         2.69906279422139   10.42815080163370    5.48041745406563
H         2.29995072308727   11.69727130366696    6.66928182497930
H         2.23026716496291    9.98362764235577    7.13367322914251
H         4.48686224682656    8.48152714741876   12.38883440514594

