55
CSD_code = NOYZEI | q = 0 | S = 0 | Stoichiometry = C24H20FeN2O7S | MND = 6
Fe        3.41995863630058    2.75376124640795   10.67064100450966
S         1.86016474098481    2.87832980016492   12.42250315457526
O         1.45682855797149    2.95557540231157    8.55944365758958
O         5.35472791055376    2.38306336698286    8.55075451305927
O         2.81087986529858    0.17385308181229    9.67928583235774
O         5.77471643742053    4.20040241237979   12.19725598190554
O         7.26320965121206    9.16415376624698    8.74990990399768
O         2.42978080406546    4.52846136017174   14.37453871746154
O         4.08465083009950    5.18061862592210    8.91917707283763
N         4.76842684739479    2.21847793615968   12.22058908658748
N         3.40691104199558    4.88038861898121   11.01227521771394
C         2.20776735335680    2.89923740749386    9.41605040296644
C         4.62004159631984    2.56477951998810    9.41096036288273
C         3.21441515807051    0.84128729816826   10.59283072152195
C         3.57968243152021    0.17297564337039   11.93008781963700
H         2.63979762958959    0.13762708138095   12.49114276613279
H         3.91755545739226   -0.85465719070985   11.77453876178470
C         4.57282431200441    0.98139931692695   12.68552304641117
C         5.25182950404309    0.50642783751632   13.79848581953317
H         5.07642639476421   -0.49705510724560   14.14981286832466
C         6.12498548724968    1.35392704984095   14.45710241516986
H         6.64389736208024    1.02576186631605   15.34468045836370
C         6.33237098605640    2.63302485475450   13.97212353208170
H         7.00305513490312    3.30618814001591   14.47847597946135
C         5.64341771430856    3.02408992621358   12.82594575846864
C         6.67065245063456    5.17534441629540   12.70886504580670
H         7.65534038492987    4.71877166130004   12.88642479324125
H         6.28777591742014    5.57562094732699   13.65646594191653
C         6.80679420660661    6.26809796262581   11.68506683699877
C         7.14196922788942    5.94249130520952   10.37425196305112
H         7.27418945530855    4.90734420636222   10.10019331207936
C         7.29513276595959    6.92939210263351    9.42684753524761
H         7.57644798483521    6.68960973971204    8.41324928902394
C         7.10878154805086    8.27269609418980    9.76489744206159
C         6.77448892702353    8.60014425792598   11.07370684324196
H         6.62861990539411    9.62629766639140   11.37077614985992
C         6.62463284116955    7.59866992904791   12.01922064764315
H         6.36549028306449    7.86764801345951   13.03263094893275
C         7.13451465000707   10.53825971377236    9.02971679421580
H         6.12749537304880   10.78497430474818    9.38109949523376
H         7.32057954214704   11.04836009193382    8.08626491531733
H         7.86968283614465   10.86750199205829    9.77004801431934
C         2.48875130185659    4.30508995851617   13.18307451995408
C         3.02695630989276    5.30939005380404   12.21527285262612
C         3.03166203498427    6.65672719095119   12.55629331497365
H         2.73382978320454    6.94638735774524   13.55096550593587
C         3.39318355719387    7.57722847600389   11.58902947084840
H         3.38831251208553    8.63411915524026   11.80901001180122
C         3.74430870077362    7.13665227432863   10.32506771410609
H         4.00732539831514    7.83951778385387    9.55299547018347
C         3.75695142448506    5.76341831732201   10.08035267399406
C         4.33799728300053    5.98414135252452    7.78353266876127
H         3.45848157998802    6.57681555588746    7.51626837776300
H         4.55947165576116    5.28414823341785    6.98066194840917
H         5.19565831385655    6.64264062386582    7.94301464710353

