41
CSD_code = NOYZAE | q = 0 | S = 0 | Stoichiometry = C18H14BrFeNO6 | MND = 6
Fe        2.38483459767481    1.94049339914687    2.72230285756988
Br        1.37799907749389   -0.09452366930466    3.26149906930473
O         3.39979798322961    2.08018834022631    5.47997808562941
O         3.57027424775087    4.36772298858080    1.71093791820495
O         4.74250877534176    0.44268888361405    1.95926533959664
O         2.44367448469449    1.54251126190658   -0.13689955008849
O         1.13684859298902    3.87185560775630    4.74337940127977
O         5.90686065627897    4.77232907442957    8.52652366955241
N         0.54926683854533    2.85792509005496    2.85345906323926
C         2.91605494978227    2.09654437936672    4.45128500677923
C         3.09473218890888    3.41370480144353    2.12022133444367
C         3.82811415954720    1.03497463895751    2.28188557663515
C         1.79303228729079    1.70908270591754    0.86088663461443
C         0.25526544064236    1.74220685585832    0.76916548479491
H        -0.07392809397363    2.06446429082153   -0.22201545055084
H        -0.06658087249081    0.70382833349025    0.90862015116418
C        -0.29994658854550    2.59299457308425    1.85153224204087
C        -1.58724695058378    3.10937894690312    1.83396564299158
H        -2.24735405596524    2.87567069665300    1.01528224032261
C        -2.00179855977286    3.90803603802431    2.88510524511669
H        -3.00213806311848    4.31177659484409    2.90563915050531
C        -1.12076861304127    4.19632094931381    3.91191225423883
H        -1.41865986006500    4.82531414371199    4.73346784667120
C         0.16195008983988    3.65657314897207    3.85618147008023
C         0.91245253405892    4.68767721616091    5.89305513537218
H         0.11545718084295    4.25507101714764    6.50911651509818
H         0.61847512531431    5.69631649299286    5.57178988063334
C         2.21176266515877    4.72716761152009    6.64886270778203
C         3.33451143417818    5.29680648044344    6.05436635851664
H         3.25287690935141    5.73235444507616    5.06945422045079
C         4.54739025640002    5.29403537470530    6.70364464078487
H         5.42477748035922    5.72673921875898    6.25031297103652
C         4.67049400304939    4.72077072896881    7.97260239156928
C         3.54982462964104    4.15215893923315    8.56894009389930
H         3.60914271984551    3.69600873231199    9.54401271222211
C         2.33640730656917    4.15311585960654    7.90233351673115
H         1.47828112260354    3.69542220599925    8.37261019003591
C         6.10607579656666    4.19422200361144    9.79528633752354
H         5.49447664421445    4.68378952853538   10.55987669870632
H         7.15916414681079    4.34698010627363   10.02545004988462
H         5.89003733258463    3.12150196487877    9.78570489561609

