81
CSD_code = NOZBEL | q = 0 | S = 0 | Stoichiometry = C25H48B2N2OP2Ru | MND = 6
Ru        7.37471094471493    3.52433433495720    0.87553081543441
P         7.63951742339507    4.97430365303753    2.76840467498690
P         7.51520286475709    3.02921625289851   -1.46769973675390
C         9.10030276816885    2.96840425852725    1.07956696941988
O        10.20937870005830    2.63878460414857    1.19818438462072
B         8.69546222190132    4.92505188972947    0.19293051635451
B         5.28793153771615    2.68961727438326    1.31622663218075
H         4.64495825567732    2.09025068174798    0.51897731541358
H         6.44914669428169    2.14796024225834    1.53436169049983
H         5.74240367461110    3.90751824109485    0.74503731391871
H         4.69149743385092    2.91114678490302    2.31810434912291
N         9.41881861042981    5.84760436052554    1.00222622756643
C        10.46831844807664    6.35422875646894    0.26524004020579
C        11.45604607680008    7.26379641758970    0.59136620035946
H        11.50010182523494    7.70933875419993    1.57481612185374
C        12.40143420139940    7.58215917388993   -0.37392771922489
H        13.18281951407116    8.28880177351563   -0.13588990618988
C        12.36464276209196    7.00359363842573   -1.63275484076146
H        13.11766178101634    7.26624409892101   -2.36117165418639
C        11.38133935908614    6.08475313192617   -1.97292301268461
H        11.36812341624708    5.62784802562954   -2.95203187734829
C        10.43104009970175    5.76133057850612   -1.02337706868146
N         9.35929543282701    4.89497978424256   -1.06722417906135
C         9.25726838338097    5.87153089910795    2.42716977800267
H         9.25793815237433    6.88950613745325    2.83551470625472
H        10.07884688465140    5.31339001554604    2.90139783900227
C         6.46241391315823    6.47132644168407    2.92274779483229
C         6.59552665859096    7.23077782179194    1.59845431911795
H         6.44464956222062    6.54902544554221    0.76109065648902
H         7.57170620637219    7.69516978895239    1.48664240518345
H         5.84024010113891    8.01397146440158    1.54320787831150
C         5.01342997738765    5.99800941145024    3.04254403990536
H         4.82495185201838    5.49450596693847    3.98566181271839
H         4.76436129340354    5.31552916279185    2.23410590718690
H         4.34410860045722    6.85621487512257    2.98166638083457
C         6.76595762439028    7.42196478769751    4.08001215491110
H         6.18363190673297    8.33378490381844    3.94680576617910
H         7.81492218529789    7.70465954117573    4.12081208664326
H         6.47764288575550    6.98789045599076    5.03366042635046
C         7.97493196670653    4.24308864027261    4.49644081741018
C         8.78397373564992    2.97108430910677    4.22459149305153
H         9.74626665342231    3.19873663110188    3.76867764677750
H         8.23267431294765    2.30527988432405    3.55720373599223
H         8.97263328473533    2.43951499708201    5.15671087135301
C         6.64048118089998    3.83022530233667    5.11733854209486
H         6.01564567278710    3.34003170001457    4.37054001559425
H         6.10754275889634    4.68709578042514    5.52237186014624
H         6.80917882310882    3.12848395089591    5.93364392123937
C         8.76354138448250    5.12046552452795    5.46821337599540
H         8.95777448704968    4.54585400794472    6.37404901288880
H         8.21841449378186    6.01233065189339    5.75562734210495
H         9.72378192645314    5.41797329201982    5.05529602250565
C         9.12997780040122    3.83179574102906   -2.00224747108064
H         9.93858350088289    3.08920820746158   -1.92298134325006
H         9.09163029458455    4.18287075362193   -3.04064560475629
C         6.30472299374307    3.91923067433520   -2.64791599151768
C         6.52515829068134    3.64113761665027   -4.13423423307282
H         6.18405801501737    2.64527789898761   -4.40442192730476
H         7.56638502980595    3.75183611193624   -4.42669076728602
H         5.94158845661514    4.35537748401344   -4.71522760280378
C         4.86041606221984    3.56797018642335   -2.28986465267118
H         4.17965920785542    4.17479965211375   -2.88690581685916
H         4.66506644733936    3.77177587048157   -1.24027743174528
H         4.63403438511949    2.52401541229318   -2.48309857990537
C         6.49939466794238    5.41566736876591   -2.38110807967103
H         7.46468070482605    5.77358214539566   -2.72921835511163
H         6.42706557951621    5.61700851615830   -1.31198179352037
H         5.72379890361975    5.98611914414542   -2.89089078646898
C         7.77723768758044    1.23385422816745   -2.05226524735063
C         8.49677424931141    1.04791662085979   -3.38783503795736
H         8.66544413762401   -0.01763584758472   -3.54481163252000
H         9.46624971416147    1.53906196953318   -3.39612715482503
H         7.91453429996017    1.41481826129177   -4.22547674226271
C         6.42216466760579    0.52695607263871   -2.07691067717224
H         5.84745222493403    0.79742139410621   -2.95944091260268
H         5.85014444613107    0.78264516139949   -1.18488046314076
H         6.56454466402279   -0.55322880808847   -2.09197406170379
C         8.62571143111794    0.59174333068225   -0.95021799266885
H         8.77582333822416   -0.46669935801547   -1.16039045185820
H         8.12438182471331    0.68024746502560    0.01595207474199
H         9.60582606007970    1.06023822323221   -0.87558312977365

