78
CSD_code = NOZDIR | q = 0 | S = 0 | Stoichiometry = C37H35O4PRu | MND = 7
Ru        3.98804134845530   12.24722623382443   21.37603727043011
P         5.79630514544720   13.53380474004746   20.87111281391516
O         2.78563149156557   13.50656958241771   20.19843045764174
O         2.35428199770612   11.02422220640372   21.83054945679637
O         3.99249447036062   11.17184251810134   19.60289279617199
O         5.16309424163294   10.73550520146401   22.25558001635004
C         6.03922786144440   14.78705661177634   22.24022977320126
C         4.82624560422607   15.67004678892314   22.28897696823541
C         3.54117700208652   15.14952274512388   22.50904426267967
C         3.25579367611884   13.75073826424397   22.81749695455728
C         4.09040097009243   12.86206920729685   23.50677447130776
C         5.39619245568448   13.16637387715358   24.08074995160726
C         6.30531075717663   14.08762594434131   23.53818559762157
C         4.98048098040201   17.03484104439259   22.07923727811238
C         3.89505053533967   17.88917851852721   22.03917162856274
C         2.62021511048522   17.37647558086473   22.20987536782267
C         2.45417469743353   16.02856677006339   22.44788388638079
C         5.76000419812752   12.49436562671188   25.25326959803392
C         6.96166850477255   12.73580844164937   25.88602663946696
C         7.84060354327676   13.66783044903400   25.35889217021580
C         7.50765661652332   14.32969435829368   24.19204316460512
C         5.68222320909867   14.55915197259750   19.37133024332129
C         6.29215022373598   15.80041936792081   19.21851946258776
C         6.13916936270682   16.51037255550614   18.04106185223624
C         5.38715039517061   15.98757524745390   17.00214149389375
C         4.79730961629875   14.74163917502800   17.13801451173119
C         4.94493142828123   14.03024878966525   18.31475181131623
C         7.45966723060625   12.80418715624378   20.73695517464671
C         7.91933949231989   12.00862515817376   21.78536074178195
C         9.16547126165423   11.41530382110219   21.71439712492088
C         9.96088024629964   11.59577689700603   20.59402829153621
C         9.50139564363945   12.36882615347550   19.54114736199839
C         8.25695060142950   12.97029463550897   19.60822761972937
C         0.91861683582917   14.15874374093800   18.93029964694341
C         1.60003518774727   13.21276794178795   19.90497744124603
C         0.83563634894875   12.14055967256654   20.37133116467801
C         1.24332107132312   11.13878658531187   21.26097198388599
C         0.21030087217208   10.07400504071720   21.59159881862856
C         4.29593839691375    9.41662020264433   18.06197652981793
C         4.50004433607230   10.03313678899348   19.43453051274769
C         5.24128090079341    9.29604013507718   20.35734365495583
C         5.51643743016183    9.68139209737553   21.67257703780588
C         6.35446739111558    8.72089874193041   22.49845764120512
H         6.92134036377002   15.38874213570244   21.98803469748200
H         2.18312295954073   13.55408091811962   22.91158393177582
H         3.57737709406885   12.05918484103061   24.04045610913438
H         5.97346425451427   17.43949372116412   21.94008836275141
H         4.04265784120460   18.94446524719328   21.86455417281450
H         1.76013025316509   18.02807955395049   22.16312155147628
H         1.45876055869007   15.63335832542989   22.59531098685903
H         5.07557059034764   11.76815793288652   25.66756690882170
H         7.21496743965141   12.19964676398619   26.78887607021606
H         8.78369672307780   13.86813186012982   25.84490202809287
H         8.20380027713451   15.04052351486815   23.76828810061250
H         6.89793798986664   16.21563933517315   20.00893811502403
H         6.61073938352245   17.47669668553281   17.93300823663332
H         5.26623404621747   16.54931714351607   16.08716836507806
H         4.21845430697722   14.32716869240265   16.32516117716764
H         4.48214537704998   13.06039838906269   18.43513580926796
H         7.28936957703655   11.84921421424631   22.64720395630899
H         9.51669596206028   10.80639891092538   22.53490444863085
H        10.93356140197406   11.12905458695256   20.53823292771275
H        10.11452437782297   12.50365788100267   18.66160422106194
H         7.90253796880662   13.56895049159564   18.78102747090260
H         1.60189210955624   14.96630194848149   18.67890516518019
H         0.01579033734117   14.57060572717840   19.37533092124974
H         0.64221613341974   13.62285731663183   18.02495619476661
H        -0.17177777781275   12.06215332539476   19.98869429642982
H         0.63391082439447    9.36238387475494   22.29597497028209
H        -0.08568909244210    9.55062942175080   20.68511397507250
H        -0.67465188606989   10.53270645107538   22.02749724109349
H         5.25457892271154    9.32944724216190   17.55419859288241
H         3.63420740892101   10.04684289474421   17.47259523998206
H         3.86369163001906    8.42336782475185   18.15568197575218
H         5.62174052735316    8.33955871712728   20.03212438056783
H         7.33762982150831    8.61295529750840   22.04503327462012
H         5.88042543893290    7.74299738766560   22.53400444826153
H         6.46327816498651    9.10899483822002   23.50796103070290

