79
CSD_code = NOZHUF | q = 0 | S = 0 | Stoichiometry = C28H48S2Zr | MND = 12
Zr        5.62937246030452   -1.54543790209600    3.68505020040951
S         4.35905240190545    0.16667094722056    5.03091004508600
C         4.96363614670290   -3.12562896985525    1.82449976973356
C         4.58249086456333   -1.82296222983426    1.39153938156519
C         3.57594815266337   -1.34325140757889    2.27137038122397
C         3.33252832405485   -2.35693459176240    3.24700044718186
C         4.16152194073178   -3.47597244882981    2.94968704786989
C         5.84205949199802   -4.02707121554859    1.00140930608027
C         5.00854132065078   -1.24909465122801    0.06888282264312
C         2.69748228579991   -0.13574235462062    2.09523097153523
C         2.21739284226647   -2.31813169486826    4.25469740306322
C         3.86338855726848   -4.87471789585895    3.41746082718394
C         5.49415136459623    1.54618771296881    5.43495461560412
C         4.75590126464055    2.87700314928257    5.38488704873149
C         5.66036161103962    4.04185852145803    5.77953602024160
C         4.93646464163342    5.37801756192622    5.67207194563682
H         5.93533682862645   -5.01276585310799    1.44981632634330
H         5.40597643048961   -4.15957201072760    0.00791263042378
H         6.83781157314135   -3.59675819292580    0.86342258626722
H         6.06721370077942   -0.97776976893984    0.06390204642921
H         4.85069223309292   -1.98939815916542   -0.71825932392663
H         4.42119412111491   -0.36894521963370   -0.18311162476785
H         2.64858499901580    0.45364359661774    3.01291587472820
H         3.04995266416050    0.50137769080978    1.28734940098122
H         1.68170506567932   -0.45754687804790    1.85449219199603
H         2.16354321917043   -1.34014622810303    4.73571098611968
H         1.25852177483549   -2.50412518004967    3.76429685327823
H         2.35194775775176   -3.07644838283391    5.02516621378027
H         3.00522189767308   -5.25380213163262    2.85496391097408
H         4.69177585914347   -5.55463676496409    3.23793557547552
H         3.59813272431825   -4.90901643527513    4.47153938677233
H         5.87813638345871    1.38078759048304    6.44379271130935
H         6.32153182814745    1.52081952340583    4.72054890079757
H         4.36722694319391    3.03829049684986    4.37707472907614
H         3.89984583502476    2.82765498150300    6.06218808594698
H         6.00867842607063    3.89696099222518    6.80522260929935
H         6.54072905533146    4.05255006854826    5.13206866432155
H         5.59333158123430    6.19470039248422    5.96357702800390
H         4.60589560776710    5.55129062119574    4.65030877282442
H         4.06322863117827    5.39085786309594    6.32062055921840
S         6.89941232006505    0.16649751689491    2.33860054694795
C         5.76451576468713    1.54623436785032    1.93479789160964
C         6.50293396116697    2.87696654567407    1.98490835222663
C         5.59864153801630    4.04193493034284    1.59022427126390
C         6.32263918366255    5.37804298038959    1.69760318215155
H         5.66584944835843    6.19481675774658    1.40615423717083
H         6.65333533066703    5.55126410883229    2.71933337202667
H         7.19581259955062    5.39074859239517    1.04897196577634
H         5.25023276824712    3.89705811945361    0.56456320522012
H         4.71832340273329    4.05274751865346    2.23774606243822
H         6.89169496554788    3.03823749833718    2.99269556247520
H         7.35893431634719    2.82756228051376    1.30755110904758
H         5.38048189500910    1.38088834421654    0.92597546482929
H         4.93716405402249    1.52092740078427    2.64923756090842
C         6.29517146787180   -3.12572452938087    5.54545317254754
C         6.67619418675342   -1.82306466211642    5.97853033891274
C         7.68272602742589   -1.34319899762651    5.09876825630498
C         6.24997586972874   -1.24928768954168    7.30116794907322
H         5.19131486662068   -0.97792373211436    7.30602755057588
H         6.40768417562667   -1.98965756363427    8.08826716435444
H         6.83731051038799   -0.36917303313118    7.55330624142493
C         7.92626373799315   -2.35678111363874    4.12306076030797
C         7.09735648003079   -3.47590862334762    4.42026525783608
C         5.41679459200491   -4.02729918709753    6.36844169635876
H         5.32363089503609   -5.01297535763241    5.91997265448345
H         5.85285729989043   -4.15981690567747    7.36194240714163
H         4.42100066533306   -3.59708344167150    6.50641899667782
C         9.04145345932203   -2.31782503755812    3.11542785292471
H         9.09542348525407   -1.33973867606618    2.63464985841555
H        10.00027928091965   -2.50401112221986    3.60583027952410
H         8.90689371996618   -3.07594154034422    2.34476842851593
C         7.39562584427674   -4.87458807349362    3.95237706973751
H         8.25386157881054   -5.25361795338832    4.51480715301898
H         6.56731883748650   -5.55460830831913    4.13190036959381
H         7.66083757712020   -4.90879269210923    2.89828206367176
C         8.56109803367358   -0.13563838960971    5.27504321835051
H         8.60992200326136    0.45391750524233    4.35746379797516
H         8.20861306981093    0.50131840248841    6.08304687808645
H         9.57691197609562   -0.45740138268386    5.51567447062784

