54
CSD_code = NOZHOB | q = 0 | S = 0 | Stoichiometry = C24H22Cl2FN3OPd | MND = 4
C        -0.61373508339921    7.18721430018412    3.15410104057824
H        -0.16356130379894    7.84259581514698    3.91529045424785
C        -1.16247866820117    5.94823329871556    3.75552118196160
C        -0.22617191964412    5.26515927983525    4.72627587626590
H        -0.54769529626258    5.49168313933424    5.74260150075784
H         0.79969651798469    5.60283982723763    4.57883206383269
H        -0.28222495966833    4.18976868579152    4.58059521310580
C        -1.97119499660013    9.17425053692711    2.56725370322813
C        -2.20427174623298    7.40907433652117    1.28765927443829
H        -2.05629285307239    6.38455998031299    0.98075610692215
C        -2.95891439914803    8.40995730208434    0.75960275331846
H        -3.57976110165897    8.42399741368911   -0.11253298906703
C        -1.57622045962132   10.05612838008063    3.66705010660211
C        -0.80494687621221   11.18876659572290    3.42938563986702
H        -0.43673374634129   11.37921574044819    2.43381979244708
C        -0.46815688686568   12.01981205188158    4.48199169841935
H         0.14002917406636   12.89277599044932    4.29972042759349
C        -0.90078562489478   11.73170501028491    5.76573298035896
H        -0.64060920611297   12.38679340213644    6.58350819356522
C        -1.65406364502104   10.59429935053255    6.00583290901103
H        -1.98009330127016   10.36131287315821    7.00811294289413
C        -1.98723086566504    9.75129942130927    4.96236571626930
H        -2.57343632627749    8.86171237280260    5.14129837059424
C        -3.42558443020069   10.79685559821548    1.38061167545334
H        -4.17829350577306   10.69655096776483    0.59296254997897
H        -2.67717820869702   11.52525827380176    1.05364147401924
C        -4.06630713645614   11.25527357913940    2.66818429093168
C        -3.76933105176141   12.49883811715888    3.20818939246043
H        -3.09592212567782   13.16380064731049    2.68960944572361
C        -4.31994004312261   12.89247131742626    4.41369879514278
H        -4.09206736803393   13.85234639718552    4.84803791689082
C        -5.17007621938431   12.02283117551685    5.07154429132287
C        -5.49382559758097   10.78319282484475    4.54969731505798
H        -6.16497176200096   10.13217339220921    5.08639945480165
C        -4.93771396505094   10.40688299770508    3.34208657249587
H        -5.17595862272361    9.43866534704931    2.92680793482029
C         3.30193493406249    6.28657761393318    0.42013191830155
H         3.55695891235469    6.20343413622854    1.47649335239562
C         4.24151640807003    6.06844026300395   -0.57224425369300
H         5.25632252619754    5.81437259411960   -0.30987320222070
C         3.85156503302541    6.17837543162006   -1.89859091782820
H         4.55902660265296    6.01051840238427   -2.69648475023953
C         2.53378782855304    6.50659070256242   -2.17883684218603
H         2.18838548032919    6.60114493712665   -3.19627162585778
C         1.65769237641882    6.71107638302720   -1.12708299611327
H         0.61471188833422    6.97334323889497   -1.29669835633371
Cl        0.94217343782056    9.15003454581635    1.34633746670632
Cl        0.49825629737650    4.59008220178235    1.62732392649933
F        -5.69690278677227   12.39253677421859    6.25337613888271
N        -1.60494282714907    7.90691707186302    2.41229931742215
N        -2.80020576632374    9.50665877786841    1.55485124421364
N         2.04025621206578    6.60121240978220    0.14132292926486
O        -2.28919489449314    5.55038871254524    3.52785251360032
Pd        0.75098194786410    6.85300006330403    1.63034807088494

