40
CSD_code = NOZKUK | q = 0 | S = 0 | Stoichiometry = C16H22ORu | MND = 9
Ru        3.80417122976262    0.27802626544081    8.80025146204339
O         1.78634002304243    1.22015434772408   10.81530429521270
C         2.53872154063386    0.84417440870643   10.03138409500923
C         4.87623445160930    2.09029761378085    9.04932828243354
C         5.42559751844914    1.52962390979758    7.81808803066761
C         4.49659770497467    1.16090042690425    6.84727850629652
C         3.09370015593470    1.41663690916550    7.17475742788215
C         6.91169136426020    1.46164550484914    7.59529870274278
C         4.90272269289617    0.63906197161868    5.49348671989425
C         4.42041646270598   -1.12489799011841   10.45647761784855
C         5.49993965766584   -0.86241129663075    9.61808404272543
C         5.91605242658891   -1.85489217209548    8.55961485016360
C         4.66168891785032   -2.64379342224876    8.18329909538959
C         3.57805835239384   -1.66164125678846    7.74947272137708
C         2.42539818333461   -1.41794571331385    8.49608601143051
C         2.21074638871937   -2.12355989321053    9.81642138619866
C         3.60275282874451   -2.41403264775896   10.38761581362708
C         4.24994498693768   -3.41715497967370    9.43419584060425
H         4.27575459424347    2.99518185722643    8.92207031507130
H         5.61946702718483    2.24540899332792    9.83481813820793
H         2.39264071315220    1.00979983725065    6.44120378558390
H         2.84766475839210    2.46157536566698    7.38336258662350
H         7.21752758705178    0.60389766434833    6.99848158290854
H         7.45103101139706    1.43936144228840    8.54049298042479
H         7.21940892746544    2.36144183611165    7.05744757533491
H         5.66167916625171   -0.14125188374866    5.54801995777464
H         5.31704903700198    1.46247096816313    4.90764097326424
H         4.04198218548939    0.24603417936538    4.95516100209770
H         4.41437272536079   -0.64485511184393   11.43534613829534
H         6.30203632635386   -0.23407600421808   10.00682507326661
H         6.69663003317277   -2.51900079532707    8.95239892241715
H         6.33830117670823   -1.35238230014144    7.68611654599823
H         4.87811006870033   -3.33310846081958    7.35894152216682
H         3.51176133054623   -1.52869807621993    6.67012825648485
H         1.51359801837847   -1.13182267095208    7.97033654230518
H         1.66005389191075   -3.05816002978485    9.65901243836041
H         1.61973197059081   -1.51099153539162   10.50176315879899
H         3.51740369835052   -2.83751919638325   11.39380307169797
H         5.12783927707039   -3.88221250937990    9.88731531096553
H         3.53998158872261   -4.20988555568705    9.19156922040456

