43
CSD_code = NOZLUJ | q = 0 | S = 0 | Stoichiometry = C19H21AuNP | MND = 2
Au        1.14428531639224   14.98971815884454    1.84586964545020
P        -0.10258154387784   14.13137988287540    3.53063474470857
N         2.84489809652385   16.09564546403768   -0.49739316672164
C         2.21385618258337   15.68658425573780    0.37433228977642
C         0.09416717251816   12.30347936134954    3.70976007446474
H        -0.51333546511907   11.94339336985754    4.55101182326936
C         1.57431775439872   11.99724968139259    3.93784977319450
H         2.15308288190184   12.42514600986272    3.11196046956253
H         1.92456569895670   12.46671570922937    4.86165445696696
C         1.80888464449929   10.49074119837183    3.98985704137041
H         2.87166965480108   10.29027459924633    4.13709307407660
H         1.26705736041192   10.06606218138082    4.83915540655077
C         1.32668228874714    9.83448452328691    2.69969114050198
H         1.48297233152260    8.75541353062912    2.75006955080919
H         1.90884913247171   10.21894921107209    1.85935278736732
C        -0.15163232154765   10.13468945362513    2.47028061941890
H        -0.74166908077950    9.70074571787178    3.28183288972966
H        -0.48452298399290    9.68005470986216    1.53546181231114
C        -0.39232644515520   11.64060732361929    2.42060444601020
H        -1.45742051286604   11.84390429089418    2.27347768792062
H         0.15078088003109   12.06784970347232    1.57058661696900
C        -1.90504900011945   14.30538831533711    3.36323441041239
C        -2.76735044399248   14.10759838949499    4.43698525139243
H        -2.36802241925901   13.86822052389183    5.41299700119210
C        -4.13173919293568   14.22805138512913    4.25201726112964
H        -4.80212986451689   14.07428217358224    5.08481683989748
C        -4.64073580963543   14.54734822265284    3.00282290776998
H        -5.70748232241266   14.64169613114515    2.86473888330737
C        -3.78423764769838   14.75105557550556    1.93383338238707
H        -4.17955615070007   15.00499952206391    0.96189516996576
C        -2.41785533682916   14.63278859931145    2.11303633741186
H        -1.73768459614056   14.79623256544612    1.28625405301842
C         0.17876495944648   14.83053264831076    5.18504671361046
C         0.35062702416249   16.21317742231815    5.20906528561533
H         0.31843729529419   16.76365894185899    4.27623982418331
C         0.56470116794335   16.87220644468967    6.40411548837301
H         0.69552218040114   17.94387099102373    6.41411219436388
C         0.61882048349073   16.15200685304869    7.58677733477760
H         0.79218627632143   16.66177289681237    8.52262788024371
C         0.45517061686950   14.77683609407198    7.56876329039056
H         0.50009435455372   14.21564410035609    8.49091302312023
C         0.23416650407508   14.11276800220321    6.37495058157034
H         0.10787087926290   13.03967586522609    6.38031370215863

