76
CSD_code = NOZNEX | q = 0 | S = 0 | Stoichiometry = C29H39Cl2N4PRu | MND = 6
Ru        4.71110789747375    2.72022278805432   12.12278409508395
Cl        2.63537582143707    1.56400985635488   11.69893926505648
Cl        6.69337494582964    3.94714517774863   12.69911145212308
P         6.07178344173834    0.87803727521572   11.67265449676800
C         5.97650953081523    1.08106296788988   14.34396342682482
N         6.66912740825388    0.55960998772795   13.29919071148347
C         7.73002788466058   -0.15748001119081   13.79491078452179
H         8.43136180995732   -0.66850754824731   13.17043145563920
C         7.70211644043851   -0.05370140536102   15.14066664889561
H         8.36495465813827   -0.44952964029245   15.88285311051679
N         6.60575203126311    0.70269349759258   15.47890974561744
C         6.16546018395517    0.89723327367685   16.83257145174360
H         6.49927201602547    1.86025941699777   17.22495720996676
H         6.56940325039525    0.09626976206445   17.45048899047259
H         5.07722000186928    0.87431347638350   16.87347987573758
C         5.38720863108287   -0.88460521709064   11.33562657806976
C         4.65479597104752   -0.79042696563727    9.99797283692905
H         5.31060039110431   -0.43438214194247    9.20438417101334
H         3.81210627506754   -0.11000834161602   10.09955702990183
H         4.26775115056443   -1.76711449643883    9.71115008574057
C         6.36181298961376   -2.06600433874169   11.32462399175524
H         6.90689910230039   -2.15087376266033   10.39266997895962
H         5.77958977898319   -2.98098964405127   11.43688878778708
H         7.06204048894606   -2.02882431871255   12.15442599195631
C         4.36013796103943   -1.17529314195214   12.43497718071087
H         4.83600705322208   -1.30133362650651   13.40732232827129
H         3.83409063007438   -2.09908945376610   12.19705639481699
H         3.61554614436836   -0.38610085291121   12.48468707748699
C         7.70363473836742    1.12756008909638   10.68405339430208
C         8.29141467713966   -0.07685534512914    9.95173863046667
H         7.58789604730648   -0.50280691894722    9.24186643973708
H         8.63537065444355   -0.84638426945332   10.63613975315631
H         9.15879338663696    0.26575597615173    9.38627042452924
C         8.80680498599368    1.73616313088545   11.55369694877922
H         8.41053551301177    2.50143704347381   12.21539442424669
H         9.53844021961551    2.21281911007335   10.90253743742532
H         9.33050377867413    0.98909636796230   12.14336686174039
C         7.29655647069715    2.16594453174390    9.63294521867345
H         7.03580240077771    3.10110894332868   10.12442965678845
H         6.44246039773030    1.82084937627519    9.04895571842263
H         8.12272986229532    2.35971166062759    8.94997811281006
N         4.55980025698621    3.59640596972430   10.26531129726400
C         4.88333998791241    4.88776558982348   10.12126199132991
H         5.39949194279998    5.35580776756608   10.95221725903413
C         4.61986497370163    5.60930648457336    8.97345540994074
H         4.90592485296422    6.64822139775425    8.92039383846258
C         3.99029129002906    4.98343313329524    7.90787893695765
H         3.76317039632144    5.52112762208754    7.00018683593552
C         3.66959698973202    3.64132886855781    8.04641423314102
H         3.18559693940828    3.09851802262896    7.24951501433504
C         3.97480847967415    2.99182314542255    9.22681577330811
H         3.72117689361848    1.94948318371038    9.36056442511164
N         3.57246479671228    4.35124810734952   12.72853322988903
C         4.03082476656811    5.24935141755704   13.60368588358936
H         5.04526231675854    5.11913140080896   13.95137942764175
C         3.28924060466499    6.32557262461809   14.05289675168593
H         3.72458880864295    7.00400016027184   14.76922911258350
C         2.00124532492790    6.50589684975197   13.57853652479491
H         1.38704828669129    7.32540047155808   13.92002825097190
C         1.53390171086813    5.60288240754770   12.63769747112563
H         0.54732893296571    5.69868802433535   12.21150090906641
C         2.34537167228744    4.55755496360996   12.23902219104077
H         1.97675698054978    3.84844857301611   11.50869713134727
C         4.75368568045589    1.83463489619694   14.18646829318129
H         3.92012525949801    1.14270637589690   14.01098418774744
C         4.41482656050345    2.78299888098114   15.25899148505548
C         3.08340356320253    2.96024974390630   15.64878065604551
H         2.31331020310412    2.36357658395221   15.17806178410981
C         2.73978991900488    3.89567757816281   16.60371081571115
H         1.70333027643557    4.01757621227788   16.88565373951734
C         3.71588941281730    4.67589351160960   17.20322594482950
H         3.44626954611097    5.40289259429012   17.95541864201356
C         5.03777178204150    4.52598008749145   16.81792621272211
H         5.80368435293651    5.14569059052315   17.26375179550399
C         5.38534225822124    3.59795151913322   15.85502377467905
H         6.41099695852556    3.52978297135013   15.51845259539531

