69
CSD_code = NOZPAT | q = 0 | S = 0 | Stoichiometry = C21H33CoN7O6P | MND = 6
Co        8.30484660115383    6.59363000846175   11.58917868385618
P         6.12673870943855    5.78739671965534   11.58453653487184
O         9.02732965275084    4.42280354169938   13.21958544923420
O         7.28915483580484    9.15484464653876   12.42584575675646
H         7.33402088296496    9.15180796007029   11.38388758151806
O         7.46724067894734    8.70164030890030    9.95173199893798
O         9.24942818146847    3.98305175456345   10.76577889186463
H         9.27503085670730    4.01820811103628   11.81476876192695
O        11.33999733086781    6.69010961622081    9.64707029052735
O        11.60856424772168    5.54136585462865   11.55995697863480
N         8.67002292265435    5.65904907796078   13.18243247935308
N         7.80770737449553    7.95152505704565   12.77943076324948
N         7.98398734623274    7.51698802249599    9.99085278777815
N         8.84894403099016    5.23518604086605   10.40576935942752
N         5.85468278702501    2.25724591250290    7.86213717294285
N         4.22209695875278    2.56993292948757   15.19180845868959
N         2.55734062021193    9.40013921038418   10.58955922875401
C         8.48026388809580    6.35193435915007   14.27040841393277
C         7.98504709100427    7.67815249708674   14.03109197365553
C         8.31489790016302    6.87394856975820    8.90964633287699
C         8.80763292549361    5.54632595084430    9.15222993532452
C         8.71812737727137    5.80348413258218   15.64034829082100
H         7.79622181717318    5.77879960100102   16.22058953135601
H         9.44249343479334    6.41390015476579   16.17652094711870
H         9.10477007719235    4.79121284545186   15.54558717816004
C         7.67798369915719    8.62822302557198   15.13910840671762
H         8.57992238501235    8.82956051484142   15.71425431817669
H         6.93796579164001    8.20196728249756   15.81459764157797
H         7.29867167235681    9.56062016381742   14.72939754141310
C         8.20432975330412    7.45896891471090    7.54070333290773
H         7.56303172899758    6.85309309472134    6.90189220185453
H         9.19171570436997    7.51210474011332    7.08576127255154
H         7.79271930667795    8.46305800010214    7.61812928548879
C         9.23207989485437    4.63925985527106    8.05160617691468
H        10.13546182566563    5.04664253931368    7.59921835351318
H         8.46319760621785    4.56718718732008    7.28499172866692
H         9.44810437417301    3.64859111150431    8.44323948396518
C        10.32559384117306    8.84813788077678   11.20071769650175
H         9.64753282196683    9.51004643690897   11.73132108550225
H        10.16234415692451    8.94903683644283   10.13126002481211
H        11.34386634308103    9.18260189275799   11.40912975583383
C        10.19104213840305    7.39797294822728   11.64353361992238
H        10.50651696079583    7.29919634496083   12.68700323389267
C        11.08191029736557    6.53388100914532   10.82014431464983
C        12.43812079519493    4.60579591315155   10.88967447453218
H        11.82108405945184    3.82756538981051   10.43506853304659
H        13.09110151972715    4.17184666527588   11.64307167953378
H        13.01948571750323    5.10770348663869   10.11349889393146
C         5.56656099657236    4.70700854999819   10.18265756058997
H         4.47230016851254    4.66097293531551   10.16391362256850
H         5.89271938187168    5.20794644767278    9.26443531487895
C         6.15865096945997    3.29072209701356   10.21005369817848
H         7.22895506288841    3.30431365580977   10.43642219789364
H         5.66820151982335    2.65932446326874   10.95516592683233
C         5.99343410280576    2.68813061125447    8.91131903854492
C         5.71362282465218    4.77165878697924   13.07904496551169
H         6.44438607544415    3.95606444030816   13.10922464069737
H         5.91639173150793    5.40550059395301   13.94788330543332
C         4.29301233358450    4.20404746300904   13.18925057261453
H         3.56005543224125    4.99403660197518   13.37258932731089
H         3.99864583543159    3.65719589536553   12.28974703180114
C         4.24026096923521    3.28996094360138   14.30559325395352
C         4.74236236470657    7.01884047295605   11.61473280067232
H         3.80590460884267    6.49299708510617   11.82599266168071
H         4.94059347473849    7.70860994829672   12.44097365070174
C         4.58092914267159    7.81877982949301   10.31613095607015
H         5.47594760375335    8.41351953946114   10.10043738068938
H         4.38795947933409    7.15944379327734    9.46508194115045
C         3.46223499856785    8.71568172886583   10.45237331482557

