94
CSD_code = NOZSIE | q = 0 | S = 0 | Stoichiometry = C36H48N4O5Zn | MND = 5
Zn        3.97510325628943    8.17786973406856    6.57208519629256
N         0.64163216411550    5.79535467346782    6.52312530667582
N         0.33498463857030    4.87251017652192    5.56614687476503
N         5.24588117524167   11.68578935739247    4.93997830841930
N         5.15992190895443   12.91602225450294    5.52161673832841
O         5.38948518848520    7.28727579725445    7.89626686526473
H         5.67729981733749    6.47024797010480    7.47463685111142
H         4.83330502484919    7.04887025534763    8.64627777501068
O         4.45576872282520    6.74481797676093    5.25888799963783
O         2.43770371317511    7.17926424891873    7.05581454526338
O         3.56367973381882    9.46347370931522    7.99379629433327
O         4.58621076757865    9.50709912596660    5.41251553109146
C         3.66108445264512    6.00748402569975    4.62758120193887
C         2.39158614483858    5.67862566607250    5.14048552771773
C         1.88804217871626    6.30900824271337    6.31605131959322
C         1.33691595726395    4.79566401424629    4.73813452628422
C         1.27948569795964    3.84915426601076    3.59408040082269
H         0.38764075933863    3.23695401027293    3.69569552630823
H         2.15878023032666    3.20878859892107    3.57584517041592
H         1.22574251053637    4.38890020650249    2.64951139568713
C        -0.27820245952288    6.06361813235094    7.54288500723830
C        -1.49444209855739    5.38407023569650    7.53633086047546
H        -1.68891874344166    4.68030357972948    6.74353584281532
C        -2.42042759543103    5.61823941850935    8.53377137237734
H        -3.36142350309399    5.08813177008310    8.52276046908399
C        -2.14637072025058    6.52527239593031    9.54465290310166
H        -2.87070062971256    6.70451942990511   10.32535366172265
C         3.60056436702414   10.71555859745573    7.95622679639226
C         4.21701982480822   11.40924150008958    6.89955139101991
C         4.68807764800120   10.73040743286041    5.73740019729595
C         4.55403885467577   12.78255205212638    6.66600944834434
C         4.34056914304018   13.96886258521467    7.53489855982662
H         4.85165437188093   14.81891962406521    7.09149948005942
H         4.73317634203213   13.79155459865514    8.53381909928213
H         3.27991076734196   14.20226165140572    7.61732320408791
C         5.90446400872076   11.55350208856455    3.71244861664195
C         6.20941110763839   12.70745122446869    2.99456394461867
H         5.91770010516132   13.66209867256907    3.40123351897656
C         6.88207933293730   12.61295156947671    1.79199814465215
H         7.11500852344910   13.51080146055837    1.23858566741278
C         7.25962918146696   11.37494677488324    1.29791114777778
H         7.78930643656186   11.30279649866843    0.35945586465521
C        -0.93777976272038    7.20049135325425    9.54786958709231
H        -0.71614424392738    7.90704857306185   10.33407060260857
C        -0.00147349340688    6.97900771457837    8.55415037816895
H         0.93578985878306    7.50966837954237    8.55897736141899
C         4.09405176789525    5.44328172724411    3.29238944740612
H         3.24027977431409    5.44723223691645    2.61479962590089
H         4.38806037163010    4.40024205206760    3.44496745043792
C         5.25073814258712    6.22441045956382    2.67454009076128
H         6.09557067622288    6.22999961783112    3.36460570625085
H         4.93834377234998    7.26077855565155    2.53210347715489
C         5.67400857396595    5.62562261328651    1.33594023842760
H         6.06326495751385    4.61640947028601    1.49363384526395
H         4.80091378041758    5.54322367014241    0.68336833590160
C         6.73399543352921    6.47617907661496    0.64177132403467
H         7.59919161447068    6.58392146336592    1.30060108859101
H         6.32437701257000    7.47263184957141    0.46058747900063
C         7.18330020819897    5.87371730668812   -0.68682125104971
H         7.60854366296709    4.88243278689703   -0.51162236179804
H         6.31495810726302    5.74944761073059   -1.33851530065324
C         8.21773686396150    6.74910482349520   -1.39043948623281
H         7.79284167441092    7.74119616018590   -1.56031286920539
H         9.08901248814105    6.86952786104120   -0.74235427359825
C         8.65565428205200    6.15195518021293   -2.72199081432184
H         9.39182364364822    6.79008388166425   -3.20528895631940
H         7.80368710333755    6.04418600448468   -3.38998994996487
H         9.09843124567551    5.16944776052757   -2.57258844492253
C         6.95801770480023   10.23021437310967    2.01607137247701
H         7.26055848185086    9.26399546229207    1.64136957633766
C         6.28017313179446   10.30819491756179    3.21911623910459
H         6.04559579385966    9.41625452825871    3.77587526301761
C         2.95328821320606   11.48333521995127    9.08912338202076
H         2.44148965809377   12.35446385255190    8.67958763960174
H         3.74360733609321   11.84563731432446    9.75247270641810
C         1.96886390831167   10.61892831551552    9.87355491120561
H         2.49648085943775    9.76034033031120   10.29103642284448
H         1.21339518405789   10.23483512928628    9.18502412682007
C         1.28883609636197   11.40381485657329   10.99136152737856
H         2.03799444997587   11.73408410132688   11.71528713382852
H         0.81760859642655   12.29724521413302   10.57379500277118
C         0.22854640098929   10.56737538900775   11.70316289358933
H         0.69111416978003    9.66088450039357   12.10142353390491
H        -0.52999324224030   10.26341243469654   10.97769073308151
C        -0.44563220610858   11.33071334912081   12.84014256924394
H         0.30693774673976   11.62553326152768   13.57551545878952
H        -0.89560984807583   12.24451145709453   12.44451498694161
C        -1.52386367627595   10.49744338566011   13.52897072763707
H        -1.07521087398872    9.58303035139565   13.92427485667165
H        -2.27673785801059   10.20462391589519   12.79338270920943
C        -2.19529153953080   11.26273448933257   14.66250261703565
H        -2.95912555230553   10.65210822645805   15.13836917883223
H        -2.66573451723495   12.16812674185709   14.28494267950147
H        -1.46426424291585   11.54707509010655   15.41643087035533

