101
CSD_code = NOZYIM | q = 0 | S = 0 | Stoichiometry = C38H56B2N2P2Pt | MND = 4
Pt       10.85529674003275   12.32704808685654   14.93117517815521
P         8.42182898697157   12.28170197001881   14.94644444518444
P        11.17344907325109   11.13847309168945   12.85159987269887
B        10.97763528988835   13.42960054470123   16.66589022366984
B        12.83613722894416   12.68919446792838   15.36582790405180
N        10.74341576226583   12.97513116939399   17.96275783184812
N        13.77570291055775   11.77209992551279   15.83542316935719
C        11.17120044133245   15.03895816399538   16.41442783600282
H        10.40023614567925   15.63144258740274   16.91866369626706
C        13.34151690864016   14.18353469072514   14.91550313192958
H        14.22616682127129   14.14266043125629   14.27117079750557
C        13.41534194858061   10.43835330054831   16.26142395887486
H        12.36548042387205   10.26525242575765   16.02834319799099
H        13.57246381801632   10.31502131334484   17.33797716645943
H        14.02680099822672    9.69018442364040   15.74440479961579
C        15.19326769738963   11.99495284051944   16.01274790655974
H        15.48625759961383   12.95036725415359   15.59601474267423
H        15.76616061460455   11.20394285840912   15.51541567122249
H        15.45619990640213   11.98655278744545   17.07622567814424
C        10.59001802770383   11.57219693407613   18.27652262274210
H        10.61418893092948   11.00011048783919   17.34923417873063
H         9.63716879383692   11.39159160867576   18.78777721064084
H        11.39590227069258   11.22800405547484   18.93264752932138
C        10.67082329692190   13.77800460080005   19.16336685797327
H        10.59054494737349   14.82952830277208   18.91532451286016
H        11.56299503627256   13.63548061270512   19.78311659977346
H         9.79582327799539   13.49126818722661   19.75734926982899
C        12.21210839645508   14.82775934412412   14.16496863412096
C        11.11201428968282   15.29369252417385   14.93568766927318
C        10.09754059920104   15.97930558671926   14.32421668043952
H         9.27895976548851   16.38291390861253   14.90738324757768
C        10.09110823293319   16.19014079748236   12.92849131454842
C         9.05604820526597   16.88916795514801   12.27716174788477
H         8.24812101784996   17.29454469540852   12.87169896605140
C         9.06577783883444   17.05635928319130   10.91975413109762
H         8.26635725243990   17.59371808604155   10.42932548619317
C        10.11580604028706   16.53355027079968   10.15166155386641
H        10.10904266899105   16.67054615460792    9.07941947113087
C        11.14297661137075   15.86293701569700   10.75656199280117
H        11.96028837568270   15.46719311534982   10.16784415957805
C        11.16327099515807   15.67708017124427   12.15296237921737
C        12.22333204799278   15.01612265905200   12.80920942955947
H        13.06417750260624   14.67587824770030   12.21853145162633
C        13.63687398634382   15.01868969100740   16.12270411276133
C        12.52833198951847   15.45372185832745   16.89272380667231
C        12.73168681474074   16.24786253767775   17.98848689754789
H        11.89309930284522   16.62518918359465   18.55978075096569
C        14.02842864374990   16.61596371543656   18.40161087736675
C        14.25936300621053   17.40959888072751   19.54251104439920
H        13.41089920829531   17.73655149129039   20.12856257663258
C        15.52991898781809   17.76142979012771   19.90605789203235
H        15.69862153609522   18.37037024348109   20.78303412975619
C        16.62677713613989   17.33603154524524   19.14224451131564
H        17.62477333481579   17.62371544082102   19.44153902842180
C        16.43393129257300   16.56618855317370   18.02847895840414
H        17.27751791468422   16.23733383701810   17.43653158148615
C        15.13752786761545   16.18530867710302   17.62945951881107
C        14.90107852570183   15.40323631427203   16.48035867434325
H        15.75497084988558   15.12439525727013   15.87577148252661
C         7.72178510337605   13.55249789583356   16.11217341003720
H         7.86451910006276   13.13302933885581   17.11226343002133
H         8.39751919463644   14.40582323108481   16.03513416749920
C         6.28866464070050   14.04491323213936   15.94185946374422
H         6.05279540467395   14.73860218342146   16.74874004453087
H         5.56272728044709   13.23835828981957   15.97371973722690
H         6.16586543301455   14.57860906045157   15.00313496242977
C         7.37294716623705   12.50171071984130   13.42935973895589
H         7.54749713868364   11.62481842463710   12.79838200541810
H         6.31287572276384   12.52217444851605   13.68752202736712
C         7.77391652251892   13.76515703106474   12.68139974961806
H         7.32356087591449   13.79922035629210   11.69015364624070
H         8.85634502748187   13.81279552316226   12.57394966800955
H         7.46438858674621   14.65420398140107   13.22351493880577
C         7.72419793542688   10.68303218298622   15.60270387635015
H         7.90494443766026    9.93861634344798   14.82296678116135
H         8.35173675647384   10.41303566142161   16.45632498386998
C         6.26213124461703   10.62110748801161   16.02483816413678
H         6.01290005995926    9.60055368504345   16.31484333428847
H         5.59811490085603   10.90653039737002   15.21272743673311
H         6.07417522292138   11.26356885933982   16.88079760630706
C        10.63936819945422   11.87712212946502   11.23234738622228
H         9.55997661776416   12.02495343377812   11.31453451463635
H        11.08951800434813   12.87255699926498   11.18682383711170
C        10.94401917525903   11.10798756494061    9.95259171747877
H        10.52517681790411   11.64450305793230    9.10219615786671
H        10.50155034560777   10.11459625959032    9.97134560270708
H        12.01347935725638   11.00851634075016    9.78841470242645
C        12.86112106825086   10.48785549211173   12.43277184990524
H        13.20329824093093    9.93346153318974   13.30903502137520
H        12.78535281720425    9.78759692215901   11.59649514839789
C        13.85705072644029   11.59523354724213   12.12569040755987
H        14.85183117186965   11.18203109682242   11.96284131885051
H        13.89784916615806   12.28584035553332   12.96304424832710
H        13.56711529161609   12.14781689061155   11.23467392495825
C        10.25694084923531    9.52294300494277   12.81893276067114
H         9.19443840680174    9.75637542837394   12.70814676652695
H        10.56252447824405    8.91611786665263   11.96352545444571
C        10.48502504663857    8.76289857536775   14.11903065504714
H         9.80102006115161    7.92032900979397   14.21013355489620
H        10.32853802100854    9.43610849878255   14.96388595317031
H        11.50234424722329    8.38224370359453   14.16991969598425

