73
CSD_code = NPCOFP | q = 1 | S = 0 | Stoichiometry = C36H30CoN2O2P2(1+) | MND = 4
Co       -2.92397890151248    3.63041122481453    4.13451358305615
C        -3.08372532806199    5.71671503070299    6.83555757561400
C        -7.34396325976329    7.58072305250686    4.05418637522098
C        -6.24149774924889    8.12444896080926    4.69376568363388
C        -5.25718207696973    7.30003219565130    5.21065278372937
C        -5.08808240903720    3.62281456879859    6.73185671342931
C        -4.81491029138674    2.25989387298543    6.70384994404055
C        -5.53633925105158    1.39477484381562    7.50714356477534
C        -6.53099776848087    1.88869627124226    8.33564256651454
C        -6.80979898197940    3.24728425904956    8.36024022198576
C        -6.09399424303799    4.11825661545259    7.56059599246939
C        -2.14804888540109    6.57888321850309    6.26515969066845
C        -1.30053393224839    7.31492851884261    7.06905624445511
C        -1.37622317645777    7.18712155686253    8.44770937932567
C        -2.29585766472370    6.32142682997551    9.01659466224487
C        -3.14830537055468    5.57921036024394    8.21719632935697
C        -5.38610458385863    5.91940639429729    5.09381791721208
C        -6.49881577005960    5.37362931329081    4.45425944211465
C        -7.47392848241298    6.20496941470848    3.93860508588593
H        -8.10593812412608    8.22908268666296    3.64967693504171
H        -6.14605842531044    9.19520296632175    4.79309564577100
H        -4.39968187574337    7.72689087917551    5.71179859921711
H        -4.04007369940138    1.88169835608856    6.04244557871300
H        -5.32533623114002    0.33666945006879    7.48490463943460
H        -7.09463532554704    1.21363490360134    8.96069654697006
H        -7.58828096320162    3.62808613524775    9.00342032681161
H        -6.31083090789453    5.17805646761248    7.57084642109858
H        -2.08390169686858    6.65943208166266    5.18626046368930
H        -0.57739232432853    7.97866939323032    6.61966240940107
H        -0.71114846738724    7.75642486886856    9.07827941527658
H        -2.34658015779980    6.21602337578517   10.08939684015312
H        -3.85410973002806    4.89517840254766    8.66533541953863
H        -6.60277745588456    4.29962537505636    4.37871804317324
H        -8.33509899502346    5.78054360213698    3.44632644393620
N        -1.72166435709865    3.38162903520013    5.15982991760367
O        -0.86916263032538    3.58615868195941    5.94082129967298
P        -4.12698756571518    4.75965213358330    5.70032312431881
N        -4.12675309697400    3.38163984965074    3.10971931533708
P        -1.72117464399007    4.75954615482971    2.56853595716434
O        -4.97917767487515    3.58598219450950    2.32859208023542
C        -2.76452124099721    5.71660781125654    1.43337676476146
C        -0.76007049209367    3.62276476269166    1.53693500295868
C        -0.46209146738914    5.91936431562953    3.17498922854056
C        -3.70009399035909    6.57883361168413    2.00385441268590
C        -2.70007133285708    5.57910176324574    0.05173164628591
C        -1.03312932021893    2.25981981444594    1.56498289691534
C         0.24572916151229    4.11827295703264    0.70809921047120
C        -0.59112749654760    7.29999238281829    3.05835537306386
C         0.65070671123640    5.37357500776039    3.81438558612216
C        -4.54760961615918    7.31496058940337    1.20003304260565
H        -3.76417025006084    6.65936728167625    3.08276033662397
C        -3.55252153644700    6.32139612816626   -0.74759143554539
H        -1.99437759313552    4.89499871293957   -0.39647556445709
C        -0.31168471072400    1.39474472198385    0.76165196758192
H        -1.80788487064112    1.88156959120837    2.22645086375592
C         0.96155015105687    3.24734208490992   -0.09157799770654
H         0.46247248639072    5.17809291038117    0.69779228701975
C         0.39315160988154    8.12440443075411    3.57532603362153
H        -1.44869992032164    7.72686698815470    2.55734285658756
C         1.62581664661537    6.20490181214744    4.33005706277262
H         0.75470303203163    4.29955957273492    3.88978282546550
C        -4.47202686798407    7.18717845609758   -0.17862788148169
H        -5.27064993997898    7.97876752521820    1.64949172044087
H        -3.50188852731542    6.21600596516681   -1.82039962184533
C         0.68287741339421    1.88872771361456   -0.06692215806791
H        -0.52259477749785    0.33662000016460    0.78392667788892
H         1.73994174030557    3.62819337728120   -0.73484335518534
C         1.49571475750448    7.58066631248587    4.21472202578418
H         0.29759985548681    9.19516981955329    3.47621105749591
H         2.48708361963304    5.78046871636236    4.82216137590357
H        -5.13706926026252    7.75658196005034   -0.80914204700346
H         1.24652422526743    1.21370340597888   -0.69200814411845
H         2.25766427630517    8.22902600148609    4.61927877236151

