31
CSD_code = NQXSNJ | q = 0 | S = 0 | Stoichiometry = C10H9NNiO9S | MND = 6
C         5.31558355483254    3.61626289283027    3.09711427464079
C         4.81329539135419    4.32235840565087    4.25866843644788
C         5.77360286600001    4.90524602557045    5.15184649146032
C         7.09870789457650    4.78770848098879    4.90504438244539
C         8.99527334633665    4.01126397817067    3.51700709503856
C         9.43232951251916    3.34019849112341    2.41691774027556
C         8.60687927925841    2.75061569558504    1.48983156603081
C         7.23988087680820    2.83015025520838    1.71515031802172
C         6.73753271371092    3.49646327776137    2.82914183653572
C         7.61256081728298    4.09843766820934    3.76012371073362
N         4.39180849323437    3.09619466761723    2.32732790216128
O         4.54320437292203    2.47941712196023    1.29450571300386
O         3.57773066009614    4.39652975116127    4.43164849888877
O         1.09418069436072    4.26984332328456    3.55486046316735
O         1.67750683110205    2.62993797701924    1.75016478992679
O         2.70110020728979    1.97662390053867    3.87670858487130
O         2.75439363228955    4.94191037534143    1.92940228070825
S        11.27947418342884    3.34308138441975    2.10955367160575
O        11.77804733480553    3.13856864553793    3.44481228833458
O        11.33831007795040    4.69354271005421    1.59399468939472
O        11.45189057303542    2.27318445041871    1.16730913793934
Ni        2.54664989246757    3.49481319723040    2.99030655617479
H         5.39805716158743    5.42986608466569    6.01621076186445
H         7.81666282113322    5.22566820061720    5.58316974643509
H         9.70283593840391    4.46078975178165    4.19487266649028
H         9.02014649369482    2.23951988061585    0.63658522526414
H         6.55040364144786    2.37101813276955    1.01316886055664
H         1.17300444217559    4.43187163787054    4.50440171056246
H         1.24481806930484    3.21873445046367    1.11749163367796
H         2.17682130419004    1.24928066457721    3.52167820251676
H         2.00210692240332    5.54559852093665    1.93168076481863

