37
CSD_code = NRACRH | q = 0 | S = 0 | Stoichiometry = C14H19O3Rh | MND = 6
Rh        1.24294036802204    3.85062325140738    1.16739489121639
O        -0.63011037764653    1.00747676777710    1.77231349010861
O        -0.43935816569336    3.83567899948558    2.34081474442920
O         1.90295253982887    5.48795415649196    2.17737344400499
C         2.68703919351552    1.84572833736225   -0.02495128549837
C         1.24711554499494    1.83307768989906    0.50138960404963
C         0.50884281785374    2.61944028870691   -0.37707048879874
C         1.49316451246861    3.10234686653466   -1.44634677605240
C         2.33037834554522    4.07611391358041   -0.61688056512920
C         3.06557681560129    3.29710326187403    0.27086203667746
C         2.44276017807354    1.90078370767968   -1.53879133450540
C         0.74259221323438    0.84713762839259    1.52526079541813
C         1.56716451025147    0.98003428045765    2.81708007632190
C        -0.70598912778708    4.64244822520157    3.28130070409929
C         0.08011845192129    5.71741488037568    3.68875062598610
C         1.30806213301085    6.07638372714020    3.11944788236618
C        -1.99664297941321    4.39397402993056    4.02971634105792
C         1.99969351226084    7.29188045107506    3.69940411373664
H        -0.76619291413858    1.92944782965392    2.05138204847716
H         3.35308258085968    1.07313433801168    0.34837313748033
H        -0.56243849123397    2.58131828589428   -0.52023738467198
H         1.06600722386422    3.48216037780901   -2.37012854613193
H         2.55357495467789    5.08830916105215   -0.92667869613110
H         3.97678444989694    3.58388167036827    0.77804169000183
H         3.34722884787995    2.11171877968468   -2.10977564381636
H         1.95884367269281    1.00355639618776   -1.92432833913103
H         0.84881760205625   -0.17195119864242    1.12669404806725
H         2.57960757028579    0.61628924891643    2.66847373880074
H         1.09476098926435    0.40564894363795    3.60982031236469
H         1.60906057609626    2.03442179900389    3.11707117491587
H        -0.28672067811934    6.32342136708735    4.50268832617624
H        -1.77492444359103    4.09248784913033    5.05218196678960
H        -2.59370421808210    5.30215679017415    4.06421965613329
H        -2.56213134542014    3.60409748244804    3.54076662603262
H         2.91242937304962    7.49220714589051    3.14481575665665
H         2.24503491221795    7.11405225598995    4.74431762480794
H         1.34357885170157    8.15744101432968    3.64533420369018

