32
CSD_code = NSMPCU | q = 0 | S = 0 | Stoichiometry = C14H11CuN2O4 | MND = 4
Cu        0.28000273721461    1.36348782125558    1.31260060603813
O         0.59700698624876    1.62690880723803   -0.45489752075848
O         2.78047156533851    0.56387964714134    2.50245709305731
N         2.17882969461268    0.97224887395313    1.49925257478326
C         1.84444909724279    1.52649775314660   -0.73296042056226
C         2.75265310994944    1.09423863832375    0.28206119615143
C         4.12069752414410    0.87858337442487    0.00727096812747
C         4.60457801203038    1.12419380122840   -1.24856590068865
C         3.71428980192539    1.58642742280425   -2.24697813536202
C         2.38226797958768    1.79208636105729   -2.01164389185716
C         6.04789289254565    0.92377942495845   -1.59175475443565
O        -0.20587304722862    0.56382605619746    2.90947677915657
O        -1.98690283359267    2.83175821541099    0.37755381942378
N        -1.45091713218363    2.19378781642974    1.30888874200125
C        -1.40396879185267    0.82614565700611    3.20572376956521
C        -2.18490893838743    1.65761331676253    2.33308637164187
C        -3.51295567634055    1.94341315064273    2.59402614076670
C        -4.12738898120317    1.44715040557360    3.77281228697563
C        -3.32899587533035    0.62337096895304    4.64755148241865
C        -2.04083338161921    0.31261109537034    4.38074380169301
C        -5.43711131383137    1.70108990912357    4.07564927563158
H         4.75585203682373    0.53641891575473    0.81040620308866
H         4.11150915211660    1.78054804072752   -3.23321742081162
H         1.71554087659472    2.13576827233295   -2.78619825070985
H         6.48912421611872    1.85964158555231   -1.93254583922232
H         6.60606434720583    0.56759562668804   -0.73053671614664
H         6.14634924775810    0.19742121182298   -2.39767135341680
H        -4.07292929660948    2.54550056084276    1.89650691158989
H        -3.79991742479308    0.24738252600391    5.54462218357981
H        -1.45133723554149   -0.30884864912018    5.03691100319532
H        -6.04739079143821    2.31124354982865    3.43440104531999
H        -5.89894855750750    1.28892984256274    4.95486794976701

