73
CSD_code = NTPOSB | q = 0 | S = 0 | Stoichiometry = C36H30N2O2OsP2 | MND = 4
C         0.79815389077290    2.85054303077908   -1.36165827007107
C         0.35956843459334    1.81486638437582   -0.53906093698303
C        -0.99387996266667    1.60124978975460   -0.35488604825475
C        -1.92007865983778    2.42358146742033   -0.97678564162635
C        -1.48902357120566    3.46796179768961   -1.77995297760210
C        -0.13739650831358    3.68849622264514   -1.96605340987127
C         2.87226022463950    3.68450977223286   -3.17555475199045
C         4.05664723076391    4.36281040466745   -3.44842950943578
C         4.39062481824675    4.69864735502328   -4.74631143466698
C         3.53878149765050    4.36216138742425   -5.78606573092651
C         2.36444202974245    3.67755190066947   -5.52197549907788
C         2.03119208573781    3.33112579044554   -4.22453555354916
C         3.32738155361875    1.57993728471157   -1.44224205658080
C         2.85166158361916    0.58803938814430   -2.29508667063623
C         3.45731424115497   -0.65364846263641   -2.31269162985998
C         4.54222347929585   -0.91219544474051   -1.48861686813441
C         5.02139096840991    0.07377532603472   -0.64297843150548
C         4.41594551239316    1.31777960967070   -0.62091426480411
C         1.14792376883752    6.90705197403480   -1.44964761372483
C         2.01097860323283    6.93541787282200   -2.54428314554321
C         1.52027722679245    7.14309787446941   -3.81742372769996
C         0.15758486475648    7.32038299288245   -4.00950926485213
C        -0.70320915321760    7.30206042954734   -2.92476810136265
C        -0.21547049453899    7.09457079429787   -1.64514225912691
C         2.72593656270580    8.10503129983737    0.55805863134018
C         3.72553224605621    8.09494513293228    1.52626031623359
C         4.35954213546616    9.26914158401748    1.88552309278681
C         4.00214940499750   10.46117160359453    1.27555995504732
C         3.00791893095575   10.47604416759348    0.31087022954695
C         2.36620556977822    9.30413888387526   -0.04848746678248
C         0.47567403419014    6.53038556076113    1.28156103424916
C         0.15101541522315    7.60953117699420    2.09493829706327
C        -0.95494737150737    7.53796341901563    2.92476778146812
C        -1.74182809215544    6.39893678281174    2.94630918818503
C        -1.41930419148907    5.31910144416034    2.13876352703961
C        -0.31177592921289    5.38111326450240    1.31650182043750
H         1.08430335389721    1.18613557281562   -0.03949460898863
H         1.11363386423883    2.79304245681708   -4.03520122034171
H         2.00445912056332    0.78893604022359   -2.93587248148646
H         3.08355376274958   -1.42411489637422   -2.97134125424379
H         5.01223896061177   -1.88436659982368   -1.50692212209756
H         5.86552375217051   -0.12642566056541    0.00012705298798
H         4.77631821244873    2.10037720898022    0.04317678704975
H         3.07126161407694    6.78500104774332   -2.37820088311511
H         2.19462442015142    7.15625193605198   -4.66104163840232
H        -0.23171749104148    7.47177416763237   -5.00544505024363
H        -1.76351622634928    7.44637843482025   -3.07494485631281
H        -1.32723009204577    0.79567087946214    0.28268001596701
H        -0.89227091230029    7.07411773211414   -0.80283742008620
H         4.00472056695146    7.15049215211574    1.98400773611651
H         5.13706832032044    9.25535608077185    2.63474835316017
H         4.50169833335900   11.37887535443319    1.54874067039853
H         2.73073130478961   11.40527281795378   -0.16553617082516
H         1.58978051942971    9.31883106272314   -0.80083986302669
H         0.76212373861791    8.50084086254455    2.08514413955292
H        -1.20054237044383    8.37673899063796    3.55979517431546
H        -2.60173754797360    6.34907386810922    3.59777959513968
H        -2.02444236806878    4.42472028847762    2.15690540523789
H        -2.97674537990574    2.25662422476443   -0.82861383173735
H        -0.04347277103134    4.53470148222736    0.69704582256955
H        -2.20727450791134    4.11930790600491   -2.25639926299285
H         0.20002738315960    4.51548402555496   -2.57537780512494
H         4.71253830608158    4.62792303175393   -2.62778949032484
H         5.31161962481404    5.22587209036305   -4.94726370081610
H         3.79078388767733    4.63045862925700   -6.80154560518714
H         1.70272026578264    3.40769815986402   -6.33239492009521
N         4.89602798438406    5.27431511536617   -0.05118305218046
N         2.67849495538677    3.72167659621019    1.68137092900706
Os        3.35195938291675    4.62621095785272    0.36955283842276
O         5.98432209164329    5.72338781788314   -0.28340353607355
O         2.24810269308431    3.08224878025636    2.59718985001575
P         2.57389261607968    3.24937049033310   -1.42378614418569
P         1.91880825234989    6.51626163200706    0.16371793918283

