39
CSD_code = NUBKUS | q = 0 | S = 0 | Stoichiometry = C13H20ClNO2PtS | MND = 4
Pt        6.50188309891813    6.95471389945305    4.19115572865776
Cl        6.39511602543208    4.87710949577596    3.28082441129841
N         6.38705848701214    6.37614878212215    6.10080490401512
O         6.76100362001525    8.90853020659547    4.71684406368018
O         5.22551026024927    7.93882354573763    1.51143297736624
S         6.54877952731625    7.68569005460363    2.04491245312591
C         6.96181020938558    9.35216757640646    5.90936657405128
C         7.24006028955170   10.73436706014924    6.05996617198197
H         7.25968797248316   11.33357527148506    5.16197307328557
C         7.47861449967400   11.29369754486650    7.28477649497480
H         7.69231965679753   12.34994352520493    7.35972439673661
C         7.44770078226223   10.50945159277805    8.44247814763527
H         7.63703889628727   10.95779286917157    9.40516846075694
C         7.17001939633700    9.17404070597902    8.33766151479619
H         7.13704047327347    8.55970342717792    9.22664416227025
C         6.92315356357099    8.55809477584997    7.09299655011354
C         6.60143307035272    7.17247491969561    7.09792791164264
H         6.51551202514878    6.74221300208781    8.09795715573521
C         5.90183636533430    5.04153867747648    6.39005115253873
H         6.08122255757772    4.78878426583462    7.44129883877041
H         6.43175739711069    4.33111612367686    5.75146337019828
C         4.39333416845813    4.95448446977997    6.08650056304834
H         4.22995473065105    5.41925296588650    5.10422404763688
C         3.58453346879907    5.71673581125363    7.13127287226256
H         3.70452829500466    5.26357327964367    8.11412475875003
H         2.52873097676964    5.69814192392544    6.87419258891085
H         3.90087585252981    6.75677397966423    7.18337660267843
C         3.96759640811693    3.49247768898814    6.01447815742403
H         4.50685481001569    2.98563254913790    5.21897973143076
H         2.90289442836470    3.42088864367480    5.80892975694751
H         4.17200189657793    2.98642242437286    6.95610641892142
C         7.43825669206268    6.67025306879766    0.81930824035011
H         6.93307760516905    5.71335320014679    0.74513728857542
H         8.45429911741606    6.52755780334279    1.16869508264174
H         7.41071646530145    7.18519973583106   -0.13371337172505
C         7.51285133787231    9.21586703710526    1.83075462051517
H         7.40053182128490    9.55519773302777    0.80777139413537
H         8.54820311973857    9.00553319782534    2.07140204294219
H         7.11070063173474    9.94987716549598    2.51963069094145

