43
CSD_code = NUBKIE | q = 1 | S = 0 | Stoichiometry = C10H24ClN2O5Zn(1+) | MND = 4
Zn        8.25995734718320    2.87772021007481    4.40281888984777
Cl        9.57969957916617    2.88138241331430    6.21924516714003
O         9.18639694012964    4.58005776371829    3.72269689062211
O         7.43617851428958    4.78852783300141    5.02293709737547
O         6.54627247552986    2.87795026590576    3.08543872671840
N         9.81365532469946    6.79111133315261    5.90219709724861
C         8.45051371306338    5.23670030206980    4.47352379102186
C         8.85691930738776    6.70271883979911    4.77286521941864
C        10.12808726692111    8.21220314639043    6.13531139515441
C         9.21918776134782    6.21681631252367    7.12411566171856
C        11.05576687770742    6.06340872892094    5.58220731860747
H         6.00992094686200    2.10287361440517    3.28545395362747
H         9.31979882544033    7.11367336161883    3.87434226835663
H         7.95350357810447    7.26199733706314    5.02126939015897
H         9.22398720019382    8.76077763883072    6.39450797133447
H        10.56361209141317    8.65438732654600    5.24072893736346
H        10.84009083018359    8.30637003826336    6.95363411994646
H         8.25374456182329    6.67597307825644    7.32619949019086
H         9.88374558489529    6.38450550579094    7.96913878918418
H         9.07910084600988    5.14083256162413    7.00833947528388
H        11.48480821359644    6.43910127341780    4.65553761706490
H        10.85040384627976    4.99927355615554    5.46467042009035
H        11.77223623719049    6.18860653622998    6.39140788648166
O         9.18702453867995    1.17478254980169    3.72310892431933
C         8.45082051080523    0.51816318387101    4.47365821594406
O         7.43549319406688    0.96586641635348    5.02162964690119
C         8.85704989687220   -0.94791667487403    4.77304145973702
N         9.81362596418068   -1.03650909418303    5.90246914698928
C        10.12817720066214   -2.45766289821361    6.13519238189167
H         9.22404586164686   -3.00639986479134    6.39388569099482
H        10.56401098505862   -2.89940078520433    5.24055165985525
H        10.83994508244151   -2.55197656296306    6.95368861857091
C         9.21874963152860   -0.46282507717180    7.12449082332631
H         8.25343875966547   -0.92238198939697    7.32631018597649
H         9.88329219640310   -0.63037078784934    7.96954930964964
H         9.07819708597884    0.61306404854688    7.00894063456535
C        11.05580124923863   -0.30863669819984    5.58299556288244
H        11.48494791847364   -0.68388174860684    4.65618412679234
H        10.85041710546802    0.75550959358871    5.46587604874867
H        11.77210165679930   -0.43419834507410    6.39228784144659
H         9.31990724775152   -1.35895511846369    3.87454710464025
H         7.95354438937629   -1.50707766888478    5.02138255067331
H         6.00912165547576    3.65203854463300    3.28712249214244

