44
CSD_code = NUBLUT | q = 0 | S = 0 | Stoichiometry = C19H20Br2N2Pd | MND = 5
Pd        2.45469072358260    8.14944355717710    2.94513563970025
Br        2.90841190966345    6.41442771742193    4.60469125115105
Br        4.20401976594510    7.62341424651322    1.41474943422624
N        -1.04155417645411    6.97096505769393    4.04328138628031
N        -1.36840602493781    5.53015950179211    5.64692157600583
C         1.31585706538955    9.80407247685602    3.30283921072690
C         1.67793516646570    9.88421180713334    1.92316004895274
C         0.92939723872867    9.40357880032868    0.81198409001440
C        -0.18352457015953    8.60391751571300    0.79439007286833
C        -0.77510689998591    7.90790262759428    1.87039125279757
C        -0.39702749141073    7.90075759362796    3.19227732304761
C         0.58783004578382    8.73323470645297    3.85918931667796
C        -0.48541170720396    6.37120363485123    5.10208289252200
C        -2.32406783887275    6.50122075218110    3.92849923867948
C        -2.52270991656738    5.60256744735046    4.92973429300282
C        -1.12185150543986    4.69187054392374    6.76910984380024
C        -1.83117907487305    4.91649894672880    7.95091158006476
C        -1.58127555897114    4.08757612727274    9.03128328474269
C        -0.64811643665607    3.05989510884721    8.95768480086342
C         0.04133681283798    2.86872152794364    7.77110885478352
C        -0.17521424619439    3.67233608673623    6.65944261708213
C        -2.82963105587597    6.03042465411260    8.06244236482614
C        -0.39620160820073    2.19091925171021   10.14918976795848
C         0.58957329596649    3.43700661246605    5.39899281997601
H         1.69639459557256   10.56686588875027    3.98146775853892
H         2.40825228937706   10.65723806746607    1.68155244212315
H         1.30818612578861    9.71424335576656   -0.15539832029366
H        -0.60820364057809    8.38736194107836   -0.17608919666324
H        -1.55170826599379    7.21046157024864    1.58526266938480
H         0.48013902350228    8.76006668149589    4.94440910638937
H         0.54111634961928    6.46418867778811    5.41643247671390
H        -3.00296536270696    6.84451789624648    3.17678463470695
H        -3.38385386249576    5.01386496140426    5.16782662480818
H        -2.11917039284673    4.24912840217115    9.95383423387035
H         0.77260329092884    2.07791154883797    7.70121821511967
H        -3.01108244841253    6.26506519255272    9.10765388083828
H        -3.78155745725452    5.74449635245044    7.61510114859095
H        -2.47697187293730    6.93106058063222    7.56316955485241
H         0.28942911595345    1.38444374157017    9.90556155565280
H        -1.32867001603881    1.76297758065028   10.51341391865964
H         0.03610345538547    2.78009071114368   10.95680527559967
H         0.95294609290583    2.41475553292280    5.36664479931280
H         1.45701693149131    4.09708233419997    5.35250230006040
H        -0.01687786382005    3.61885268019696    4.51515396098350

