68
CSD_code = NUBPOR | q = 0 | S = 0 | Stoichiometry = C21H40NiO3P2Si | MND = 4
Ni        5.90616772810845    3.46836289150703    7.93938304113444
P         7.50910282675051    4.44463071738550    6.89115432119746
P         4.37345897459155    2.87342281409603    9.31454414648456
Si        5.67988643187937    0.73099640560649    5.86483068531784
C         7.17165482478240    5.80083063445657    8.98616490901606
C         5.38750504326983    4.94283808518793   10.32554941237891
C         6.17140372385147    4.84507192687400    9.17412247489665
C         7.38185633518104    6.82065749474355    9.90138942043114
H         8.15966240809354    7.54635895234306    9.72345989661925
C         5.58510304830058    5.95233417667821   11.25464923169219
H         4.96341256258785    5.99793609605545   12.13482607025166
C         6.58337869439279    6.88666241330158   11.03147740502123
H         6.74200976549252    7.67663416273424   11.74905112774360
C         5.32179663225516   -0.82789800967709    6.92659280957362
H         6.00539255675574   -0.90307875589869    7.76802049124618
H         5.43196384785707   -1.73305824781204    6.33748966828613
H         4.31000724652434   -0.82307533217434    7.32333688941407
C         4.37907233675190    0.77298704583686    4.45620267631829
H         3.37061264689337    0.89544519625094    4.84084543592494
H         4.40102583265616   -0.15095934918258    3.88724544716312
H         4.56237263612884    1.58816409094709    3.76215691232973
C         7.39423277658072    0.44050363312786    5.05013353393757
H         7.62208360168137    1.20250209923797    4.30945825924162
H         7.43069366880284   -0.52015477950134    4.54596462240321
H         8.19199670294567    0.45104244675410    5.78806014331937
C        10.12479753137732    4.82424810299365    5.95660052059171
H        10.21264227224588    5.61344360080029    6.69986667593837
H         9.78642631353724    5.26344541171093    5.02126222599019
H        11.11152803192106    4.39352887961953    5.79322633627177
C         5.49621289207132    5.86371310654896    5.80443871773341
H         4.98369693813668    6.32207790949184    4.96024871890572
H         5.58139101284896    6.60249211368912    6.60135362549878
H         4.88942091612496    5.02431724616798    6.16988416067607
C         9.16213953055549    3.74943913992555    6.44342231151851
H         8.98046783668646    3.01190549433460    5.65705109426921
C         9.68584615170368    3.02868682917422    7.68255983739667
H        10.62702626305221    2.52415386757456    7.47139668818631
H         8.95822016315760    2.28612288781623    8.01168616949203
H         9.84748025605273    3.73800196888800    8.49347904157659
C         6.87265976993259    5.33874473368158    5.39861370514980
H         7.53852458758774    6.17658032047524    5.16245836522799
C         6.76041558821603    4.37126080411381    4.22898420981614
H         6.21579812250658    3.48365560834697    4.54691338873823
H         7.74117825442718    4.06807889257792    3.86909579876172
H         6.22341549515137    4.83485296565099    3.40265930178759
C         4.83209617785951    1.32300983079790   10.21951870513361
H         4.63533040991210    0.49858966830038    9.52952770645613
C         2.55818273558889    2.79044797406877    8.98920101400454
H         2.04071398352124    2.79628959077825    9.95532055596923
C         4.05658225791949    1.13848677507162   11.51621893411737
H         4.43860660465087    0.27632351069192   12.06076876282809
H         2.99832100315436    0.97764134284189   11.32378203751871
H         4.16359073171078    2.01863776949252   12.14717747314301
C         6.33947610271391    1.41442349191071   10.45153469373187
H         6.56949549835665    2.20921766536780   11.16149096868445
H         6.83779632297960    1.64096901605453    9.49991883223725
H         6.73758358240996    0.47807348732357   10.83869313073501
C         2.23233177633182    1.53465611032592    8.19288839846641
H         1.20693670674805    1.57273366015936    7.82817799456976
H         2.34354616050995    0.63953248198597    8.80065782998114
H         2.90435621404978    1.45946075246389    7.33954109508747
C         2.19688276889659    4.04848180666726    8.20420538252999
H         2.72678833607567    4.04576879235658    7.25170526150848
H         2.48304969299350    4.94220996044965    8.75781774401145
H         1.12713085686638    4.09106529034380    8.00679762451380
O         4.39571975059630    3.99740122743233   10.51410196622022
O         7.95710283301794    5.70121922310757    7.85289090210453
O         5.61783871272165    2.06615387951879    6.69495306157468

