75
CSD_code = NUBPUX | q = 0 | S = 0 | Stoichiometry = C27H42NiO3P2 | MND = 4
Ni        1.15031847613624    2.88986355688139   10.58601841974849
P        -0.72335829812560    1.82818090743647   10.84358197621496
P         2.93068756443247    3.84569253997534    9.77811986417633
C         0.64053395264577    2.84526869705159    8.76925570754162
C        -0.98489260248446    2.30438163507815    7.04915916119966
H        -1.92290508859009    1.84775093292635    6.77479735165559
C         1.40240755512546    3.49245062143472    7.79790568633183
C        -0.56386814976110    2.26721295869239    8.36925598164682
C         4.14730658485781    1.91017446327353   14.32005299233764
H         4.79725984194468    1.04419645386208   14.31299199015062
C         2.30139585757967    3.12689042179527   13.33245809743809
C         4.52121897269425    2.89406344659112    9.59809365933054
H         4.87886793907059    2.68264304430979   10.61024747363271
C         4.32206405126361    2.88204377493067   15.29400033596177
C         1.00174199412478    3.54013384843614    6.47154439418815
H         1.61890819104193    4.04491518902777    5.74489430611263
C         3.15936098717484    2.00602948695649   13.35706309873657
C         3.45724065935437    3.96663738889987   15.28998494905090
H         3.56010212801788    4.73194670016614   16.04844224474339
C        -0.19168102166133    2.93904129115298    6.10747892221262
H        -0.51153018634163    2.97164632421335    5.07742569599303
C         2.46253724575517    4.10588015525637   14.34073893665814
C         4.20081001467411    5.59700949666122   11.54434048974924
H         4.42115373063773    6.62584099997037   11.82513429019466
H         5.14173976854080    5.05814762139203   11.45902336841729
H         3.62357147783275    5.14037853867848   12.34475782165359
C         4.17895701385175    1.58290408654418    8.89169909590600
H         3.93443281700872    1.77454299459398    7.84794709810560
H         3.31534825447195    1.10402613575836    9.35636003336734
H         5.02000735622936    0.89275966988144    8.92642308178381
C         3.41584617431850    5.56848408730070   10.24041282244838
H         4.01610012720299    5.96659878503534    9.41356348065927
C         1.52299475663044    5.27819821666370   14.38710333792896
H         0.73000117711056    5.10109357053026   15.11538544682981
H         1.05693146583772    5.42070065026177   13.41477198320703
H         2.04831707063226    6.18805705343419   14.67268735495698
C         5.57475826497930    3.66470732521217    8.81220115474320
H         6.41991171623299    3.01318278292585    8.59406277901967
H         5.94554662992861    4.52326005991976    9.36560447847636
H         5.15795938822833    4.01021677524930    7.86806778554136
C         2.98324095597998    0.90734182512991   12.34847229654835
H         3.94214572746519    0.54643995122461   11.98041764844834
H         2.38500650860299    1.27630099241104   11.49464911637592
H         2.44833139424273    0.06552708718779   12.79163685548408
C         5.42232655157711    2.76849100164630   16.30888301661587
H         6.35532519014121    3.16645533443292   15.90525890599373
H         5.59261661330440    1.72834336888766   16.58080409109748
H         5.17852555510210    3.33007348248921   17.20816650877608
C        -0.15018901518344   -0.83907180661924   10.68449486967853
H        -0.19530622627758   -1.84570248807329   11.09650752224645
H         0.88841838874405   -0.51028747590403   10.68481963237840
H        -0.49771368285034   -0.87253586858813    9.65327264540253
C        -1.78806930407522    2.94072018874885   13.14343035733832
H        -0.75412121031643    3.20128322573341   13.36142504120060
H        -2.00304383380455    1.97112266246267   13.58773398254388
H        -2.44061402298717    3.68074122156058   13.60423465851391
C        -1.77859286616889    4.30671712697941   11.03174655666353
H        -2.41285851055262    5.04712452852846   11.51655435136583
H        -2.00057862508671    4.30571662202877    9.96459260840072
H        -0.73202092073698    4.60082996181880   11.16854572856122
C        -2.48754590845319   -0.27592029195686   11.42297885993265
H        -2.86255656053453   -0.12677705989800   10.41270927306732
H        -3.09398778340448    0.30630464080757   12.11190345569612
H        -2.60115619193637   -1.32850920058175   11.67863950315486
C        -1.99224716020460    2.91980337920393   11.63470998611967
H        -2.99129451541286    2.55259933443430   11.37164811515781
C        -1.01768217830904    0.11809587183411   11.49801672267957
H        -0.67630323664166    0.12043565097296   12.53782348662030
C         2.12073457008127    6.36718235585041   10.35800008563552
H         1.49228369191722    5.92771321742438   11.13280740670827
H         1.57210650560546    6.35131632221991    9.41646111904188
H         2.32402023763540    7.40306390831124   10.62380641040114
O        -1.34407981286613    1.65655879773523    9.33509800307192
O         2.57737625993234    4.10201085523166    8.19595425236493
O         1.35189955412158    3.28233858397745   12.44043977848321

