64
CSD_code = NUBSAG | q = 0 | S = 0 | Stoichiometry = C18H38BFeN3OP2 | MND = 6
Fe        8.59686767478018    5.67344894011947    3.18055746091914
P         9.21739347217274    7.57212398179539    3.96595868607077
P         8.24809626303421    3.87992865258166    2.06100632528897
O         6.04571374802831    5.69530330632431    4.52585973073498
N        10.31044226233086    5.69866699679649    2.22997735177315
N        10.71003003750177    7.75813015327050    3.17063891930333
N         9.75315653380779    3.68025100408424    1.28696599146942
C        11.17166296950458    6.70674451950830    2.42233030553921
C        12.45198783833165    6.70521264774400    1.87429991306916
C        12.84831933134600    5.61952687646881    1.11592345222505
C        11.96123491966552    4.58019177285892    0.90750128487949
C        10.69411459260465    4.65489945495521    1.48042625860224
C         8.37198427599872    9.20041883443272    3.57373234231199
C         7.57572963588838    9.10690150694493    2.28107982808537
C         9.36291975512342   10.36159897225337    3.50635219808579
C         9.59899440175041    7.91574349057694    5.77377835971183
C        11.01251092697953    7.51281918879008    6.17062457724611
C         8.56326842202730    7.13507530906729    6.57647911211462
C         7.10637016470733    3.88749926922468    0.58042724423330
C         7.58308251777835    4.93489379412494   -0.41719329600802
C         5.70302869552371    4.21412690703077    1.07458298607103
C         8.01258667238529    2.19102647121789    2.83396754278434
C         7.55345838324729    1.08157406787534    1.89354216693058
C         7.09743139100396    2.32439943777230    4.04626564193684
C         7.07847540121236    5.66315060444156    4.01306425828387
B        10.45576922120458    4.08294544445037    4.88775834327926
H        13.11755978787369    7.53379474278576    2.05729803125386
H        13.83932466500672    5.58428764297818    0.69071014969635
H        12.23636769373504    3.71822700883347    0.32091145068354
H         7.67413207549214    9.36385972396671    4.40581002892387
H         6.81970476361810    8.33041614229932    2.36143159106221
H         7.08938048324506   10.05634418017217    2.06180501400154
H         8.23323305943971    8.84967709832872    1.45258070015337
H        10.02519228818876   10.38509127061185    4.37057860152869
H         9.96520053911348   10.28994300024439    2.60270973510354
H         8.82180778366874   11.30612145022277    3.47345436030936
H         9.45613580019563    8.98809122552551    5.96284079856905
H        11.76094116217407    8.15477628096954    5.70677105198036
H        11.12767134694328    7.59153458198381    7.25083211479211
H        11.20131912551416    6.48186120137837    5.88221326529864
H         7.55385589110713    7.39363883283115    6.25553767748311
H         8.70929823570030    6.06881565945912    6.41509187279231
H         8.65496902752230    7.34852235351196    7.64045662590225
H         7.12143067422423    2.90231303892021    0.10138107062586
H         8.54199802379512    4.66020934060495   -0.85325656495430
H         6.85795416804875    5.05063566267420   -1.22079799590931
H         7.69716792870645    5.89166017130641    0.09019247110205
H         5.33349973809325    3.44755117539027    1.75284359535944
H         5.72645856742578    5.16218248760918    1.60966492832699
H         5.00800873686957    4.29817298286950    0.24025284343000
H         9.01720999100417    1.95029387539733    3.20503219319556
H         8.18353799128860    1.01854295640603    1.00704531939936
H         7.61156726031892    0.12527977162968    2.41223084508431
H         6.52129234590224    1.22873340609997    1.58270536262125
H         7.50810265152821    3.06955750031406    4.72474741177342
H         6.09510984653509    2.63505101287386    3.75714104464597
H         7.02533693956198    1.37449393342907    4.57398827369282
H         8.00991193551371    6.39635730422481    2.08662624056796
H         9.37271877052864    4.85343195515128    4.28513861267210
H        10.08890624496406    3.98888077139401    6.00656379716905
H        11.42668826410849    4.74699247569800    4.71251995400941
H        11.37005705934457    8.49205881652015    3.39471232950424
H        10.48049931653765    3.06885388705464    4.27500757468297
H        10.03972030923436    2.83184347360245    0.81542063853774

