74
CSD_code = NUBZIV | q = 1 | S = 0 | Stoichiometry = C31H39AuN2P(1+) | MND = 2
Au        3.74346006631051    8.76089837202669    7.99546942855805
P         2.25451032413061    7.63630293910127    6.69316505767245
N         6.41642181991416    9.63750184595099    9.15059498193574
N         4.79660756272617    9.99618056416824   10.55106367807014
C         5.07393347075457    9.76817886988744    9.24680745066784
C         6.97614901817249    9.67825776738873   10.41068262187712
C         5.95584747184944    9.90313909274694   11.29289216013184
C         7.14136974577970    9.54361312741435    7.86797413017158
C         7.38908557750805    8.06705880334741    7.55095325561860
H         8.00842370509223    7.59811902472981    8.31114912591789
H         7.89195263929192    7.97388255962371    6.59278335144043
H         6.44315694463208    7.52939401860441    7.50665715318724
C         6.32473848567395   10.19072821564700    6.74232859732425
H         5.44825686041789    9.60660507061264    6.47759374998408
H         6.94352866692152   10.27160049142317    5.85347254597446
H         6.00286747711069   11.18755616157705    7.03149645255899
C         8.46519222643537   10.31897265804504    7.93233911367599
H         8.32527239045717   11.27041013592640    8.43897488159193
H         8.80429589860262   10.52840163751485    6.92184756465987
H         9.25429283810739    9.76223767317095    8.42168172342292
C         8.40069573098787    9.43636666004920   10.76513528308572
H         8.46374469846884    9.12973691788949   11.80579750783280
H         9.00644869028901   10.33349759680415   10.65378791374422
H         8.82930508498380    8.63989551737881   10.16423593728699
C         6.07581339886210    9.93898217808750   12.77543266622407
H         7.00090086294730    9.45132136823866   13.07111355243820
H         5.25879648776975    9.40420643464417   13.25105102652171
H         6.10850053160452   10.95668326410310   13.15918590449855
C         3.45483329782710   10.36085105318821   11.04824897635115
C         3.55229893616825   11.37472773639396   12.19698707921792
H         3.78886399475442   10.91130074646561   13.14633931198463
H         2.59247083869807   11.86922184589769   12.31649341638675
H         4.29245281914907   12.13783720118636   11.97070219520391
C         2.73869421016586    9.08862423770159   11.50736453315827
H         2.64907683854657    8.38789535905943   10.67824632425521
H         1.74413955087160    9.33404276911468   11.86851355399301
H         3.28483119644220    8.59756618535138   12.30887579112655
C         2.64471129725883   11.04982474557249    9.94213936172819
H         3.22691583439598   11.84470534962144    9.48357461272562
H         1.74707900041041   11.48351255373958   10.37316728294834
H         2.33118802384999   10.35689004541101    9.16684500594661
C         1.70244694500133    6.04229821005141    7.35518973382019
C         1.13577494216338    6.05756973794668    8.62909185042734
H         1.02296826456867    7.00159387712040    9.14909163452304
C         0.70736402370721    4.87956272950336    9.20806218255079
H         0.26023412989271    4.89228887692784   10.19046400546727
C         0.85472236647296    3.68130738060318    8.52459446031503
H         0.52057815007810    2.76036307660179    8.97683991713072
C         1.42985805840557    3.66325834749498    7.26483341757565
H         1.54457030578047    2.72928292999752    6.73607991533061
C         1.85855983289788    4.84040851422992    6.67528626553723
H         2.30666605221078    4.82663271726383    5.69167805805511
C         0.71925559323344    8.56527094968101    6.43743724568548
C        -0.52798057942157    7.95311339963819    6.36395670337680
H        -0.61347792542384    6.88133261152863    6.47868855140142
C        -1.65517525104550    8.72489644599915    6.14506684297300
H        -2.62350347057462    8.25152234287362    6.08720191175420
C        -1.54391160368257   10.09836091158317    5.99800111462131
H        -2.42718849417178   10.69427689590836    5.82761290235875
C        -0.30175277342041   10.70938647942463    6.07098449016480
H        -0.21574717047399   11.77927015673118    5.95736987920541
C         0.82848483018005    9.94605417985763    6.29375467463773
H         1.80480279991504   10.41217504691365    6.35480099130479
C         2.83618047361997    7.26165745425832    5.01784542900526
C         4.18313438277615    6.94739102669595    4.85682721665009
H         4.83559020144220    6.94276288462108    5.72128120252506
C         4.67549451668310    6.63482715152640    3.60400647592013
H         5.71877719929295    6.38670884523901    3.48092682725534
C         3.82709051300797    6.64336413026426    2.50779490273910
H         4.21155754728032    6.40292023549803    1.52871909591145
C         2.48769489467225    6.96252084516976    2.66501531553017
H         1.82980555334801    6.96966517406547    1.80945975946291
C         1.98651800634871    7.27280153526921    3.91651707741268
H         0.94248317091188    7.52392610475491    4.04025568828393

