34
CSD_code = NUCDOG | q = 0 | S = 0 | Stoichiometry = C11H12Br2Cl4N4Pd | MND = 4
Pd        5.42206281783721    0.51208257584113    4.04706106964643
C         6.36626382524030    1.99231346374094    4.97334159085390
Br        4.38358457136845   -0.07139735293979    6.12833362918526
Br        4.39114306939781   -1.25524369219729    2.79675406472037
Cl        6.73765336396600    3.11305226377091   -0.84891671511609
C         4.54314935568979    3.64222735967013    5.05994989900197
H         3.97025257956802    2.77077713507709    4.71006730421004
H         4.47485189233132    4.45458329430196    4.33533500029543
H         4.13130245127755    3.97471777984792    6.01320549363794
Cl        9.60335538460285    3.54631857344978    6.38005619907701
Cl        6.71637530437300    5.61883464413553    6.21739079296734
Cl        9.62044005070782    1.40403857641742    0.34487043514130
N         7.66385579971074    1.96180403949831    5.33322858934437
C         8.04536712075728    1.47681950545150    0.98800685024447
C         6.94069625249803    2.13359844932887    0.52835896783686
C         8.47528723627186    0.76552106487961    5.33401572468135
H         7.79409412011596   -0.08691235033566    5.50043612881163
H         9.16208757518411    0.83690030128990    6.18015579421065
C         9.27731026897371    0.55205444291897    4.04303766184027
H         9.69600481563852    1.50253122925740    3.70640700104664
H        10.10743513781658   -0.11316934860737    4.28139310748964
C         6.92553986265674    3.99122622609392    5.76511087009446
C         8.03175499401848    3.19412829445622    5.82701289021218
N         5.92227476556603    1.87496460681216    1.41722442757811
N         7.67216808236899    0.82989110450022    2.14556721609849
N         5.91151470379268    3.22830436269157    5.23230786137504
C         6.37292200048844    1.07849217760784    2.39911534563849
C         8.48122231977962   -0.09792942196817    2.90320229799813
H         9.17168879687340   -0.57565986579778    2.20479177226293
H         7.79903524594137   -0.86502559750560    3.30887308826048
C         4.55432001867489    2.30444954044105    1.28420236066942
H         3.97559784328364    1.83809359259011    2.09510519677342
H         4.15074849864146    1.97259142195396    0.32727734882250
H         4.48383987458718    3.39112160332713    1.34712073509043

