38
CSD_code = NUCFAU | q = 0 | S = 0 | Stoichiometry = C15H12Br2N8Pd | MND = 4
Pd        4.80254976504738   11.71471432815661   12.74489294338501
Br        6.01158800438511   13.10422497777645   11.19609446201198
N         5.82763012469837   13.70171647164235   14.75515257044383
C         5.93853977574099   12.51362406435254   14.14282352418598
Br        3.45498896612128   10.60403127535232   11.08888258311527
N         7.03695297043237   11.91109703515052   14.63642059394575
C         6.86053778451111   13.86679825662640   15.64857018087697
N         2.70323647946120   10.65555911019660   14.61706046559880
C         7.63293533110398   12.72464338318751   15.57460899692463
N         4.46626997360554    9.40409894897219   14.52438692042279
C         4.81855053492570   14.68076026668351   14.44675748808247
H         4.16570955647305   14.84892653156724   15.30563673578101
H         4.23189776114000   14.30777850996241   13.59352753125299
H         5.28633877313268   15.62521486784389   14.16539988984722
N         7.11628228143195   15.93106042248220   17.11908489423262
C         7.57635794172621   10.66870648335374   14.12970660826821
H         8.65223947670650   10.67954722735692   14.32190113566146
H         7.41613412146556   10.66120098503843   13.03600053700750
N         9.72721098281127   12.05513665675065   16.85986294115288
C         6.96583513558239    9.40472355507006   14.76060959854733
H         7.72743725511990    8.62610045503925   14.71720169914597
H         6.74633997550047    9.58342077965217   15.81696506146551
N         0.33120655585978    9.32030359009912   16.81018249553596
C         5.71674711604946    8.85379300552191   14.05026292722186
H         5.77714177002531    9.05808111207812   12.96566457169148
H         5.67126413333160    7.77164348690218   14.19669652664319
N         4.14661662555299    6.61780508321270   16.60699859893660
C         3.91589539798006   10.54018150134275   14.05576559095790
C         2.46950165248098    9.58740712541699   15.45170046825765
C         3.59387636391388    8.78802805316074   15.39431509828430
C         1.76584699802340   11.70429552754749   14.31151729470958
H         1.57594043719221   12.32333733229977   15.19066977360077
H         0.82330961600777   11.27592513242110   13.96789071784634
H         2.19233320975660   12.31721979274051   13.50287896892787
C         7.01704756022943   15.00118754316700   16.45720849599906
C         8.78964333317542   12.37661516107882   16.28423857113892
C         1.29399229261362    9.42482329007955   16.19804360696396
C         3.87757396668434    7.59016867071790   16.06311893192746

