79
CSD_code = NUCGID | q = 0 | S = 0 | Stoichiometry = C22H49O4P2RhSi | MND = 4
C         2.12431941817277   23.73922109923825    6.34444841230289
H         2.76003052488806   24.40332677333626    6.93730021634670
H         1.08766919874477   24.06100314247814    6.47276913678544
C         2.24969261788934   22.30646102057193    6.85887220291350
H         2.16683984256308   22.32475753103594    7.95117479104462
H         3.23510479534148   21.90734074484743    6.61159775602010
C         1.17186888729482   21.38634823862733    6.28927771235148
H         0.23147792463438   21.93713332742401    6.20995544594696
H         1.01077190553270   20.54218468186931    6.96128659042388
C         1.54892922027613   25.44487171449977    4.10328733854681
H         1.96970264948374   25.78405590913378    3.14892342888559
C         0.12163398197338   24.97701199066484    3.82840843184378
H        -0.36690769482338   24.64182645202956    4.74189281225500
H         0.14330358613137   24.14420109109125    3.11877462309721
H        -0.47388598199876   25.78179033202880    3.40097850612262
C         1.58532705127807   26.60075453085047    5.09685367220504
H         2.60531939286900   26.92406756154250    5.29057275365634
H         1.12286363099259   26.32765628239898    6.04218158086133
H         1.03583292695271   27.44870255838401    4.68989744567661
C         4.29205280212108   24.63999747554472    4.70754420328371
H         4.32301506260420   25.34012444266766    5.55161288465946
C         4.73202356394041   25.35952657054137    3.43836075200854
H         5.77499629151190   25.66175542481320    3.52602735394470
H         4.13952632494172   26.25197526356605    3.25282443796761
H         4.64321693797718   24.69463949624274    2.58088785158796
C         5.23010151279536   23.46749362153720    4.98076381767225
H         5.02769200851190   23.01891826938891    5.95093195898524
H         6.26956334570470   23.79223644778658    4.96874701925041
H         5.09341579189993   22.71034290251630    4.20430028799088
C        -0.04038141854728   19.95550000173299    4.13303736240686
H         0.20953322781394   19.38895565659927    3.23181282937921
C        -0.97958583209298   21.09320718341134    3.73482228728798
H        -1.83425914567662   20.71534943129779    3.17629908393157
H        -0.43794118765829   21.80244929916844    3.09990315368717
H        -1.35728421986862   21.62059345086722    4.60968931049095
C        -0.70413773626190   19.02162342863692    5.13786899694333
H        -0.91457502372875   19.52366436307192    6.08000821922706
H        -0.08793693621942   18.14751881586472    5.32941769766177
H        -1.65256165994371   18.67333305320209    4.72930532733303
C         2.74244406822757   19.30543958058155    4.94521084459393
H         2.47916306703639   18.58820969555750    4.16064943461412
C         4.17139656385020   19.78419877273912    4.68456138212611
H         4.84524375885706   18.93917596414155    4.55164304049556
H         4.54265246056864   20.37787650085270    5.51872234345037
H         4.19307865032092   20.39541186195991    3.77703663405837
C         2.66330312087455   18.63146080635790    6.31103061482852
H         1.65936232115986   18.29055044982079    6.54758844062667
H         2.99739880435958   19.30351465221863    7.09952311799884
H         3.32054244852093   17.76226126952070    6.31749424911307
C         2.65451074031880   23.34221996290930    1.60031890943779
C         4.89473442657813   20.74653555761494    0.80072090259744
H         4.89809192321572   21.43434179330844    1.66844039768984
H         5.48717650969795   21.20712936736933    0.00030156657127
C         5.51242728636212   19.41103003880986    1.20208168130117
H         5.59082429063540   18.76611407232270    0.33051501278229
H         4.87208721487681   18.92682039055907    1.93351303420652
H         6.50240403274596   19.56050188567917    1.62636719357097
C        -0.11086909639354   21.22490657668624    0.12582581347090
H        -0.18120389888330   22.12453270150463    0.76023686682614
H        -0.69155681912288   20.42877801930749    0.61578107369245
C        -0.68727441206933   21.52127358192566   -1.25177658270530
H        -1.72476386664464   21.83523517660065   -1.16578147390953
H        -0.63094806777399   20.63323937278667   -1.87561579455725
H        -0.10956352620839   22.31069998636974   -1.72448324138311
C         1.85180147634718   17.98996145062283    1.06191293747838
H         2.85489928364750   17.60518247936315    0.83568625520057
H         1.38457082643463   18.28216187781325    0.11585223733584
C         1.02211761981121   16.90898042412318    1.74496880762576
H         0.01450207298927   17.27137325442446    1.93696201181818
H         1.47469631651197   16.62924457398218    2.69410438934051
H         0.96420390352112   16.02921788378964    1.10875172340018
O         2.76279777370781   24.03465773721354    0.68826446573947
O         3.59944071010498   20.59522757251967    0.32948051373511
O         1.21751725264151   20.83960463923411    0.01116852265331
O         1.96876391312965   19.10987053217315    1.89804696539391
Si        2.25095426030911   20.65342434507293    1.28964027452610
P         2.56322706221983   23.94166024781297    4.54873570773704
P         1.58806827057030   20.73570824432369    4.59870023936370
Rh        2.31110966893785   22.24014711950073    3.03160179417071

