45
CSD_code = NUCKEB | q = 0 | S = 0 | Stoichiometry = C19H17CrNO6S | MND = 6
Cr        3.47581597426294    1.82079340342473    3.30930709773896
S         4.95867564214148    2.29194983230474    5.13113771128844
O         5.62056583720647    5.51668520682128    3.01418363808088
O         1.75552959166379    4.24982805163584    3.63948238671417
O         5.17222577128266   -0.44297994989629    2.28719299773399
O         1.43013464215006    1.02510157739987    1.28940263341547
O         1.75939762060250   -0.08782695317232    4.87179323624211
O         6.20897102016964    1.55481325014867    5.30675973765265
N         4.56946756526983    3.64178687972995    1.10508440580836
C         4.52997761708207    3.33497369796803    2.38492933830184
C         2.41605402967480    3.30191140929163    3.64872783768544
C         4.58316692720086    0.43341167340873    2.73535800044085
C         2.27027185480469    1.38379262185859    2.00341385709053
C         2.46080250565660    0.64100119879599    4.31898816165839
C         5.10025971644758    4.85538360351341    0.48641564910008
C         4.77415364478367    4.72599938841510   -0.99867177942167
C         4.76300972437003    3.21554298226831   -1.20415912974274
C         4.09235260205356    2.73205623349274    0.07672616924191
C         5.16323461119705    4.25772010774089    3.31377641005209
C         5.39862289579045    3.92816535204887    4.60196553781684
C         6.12310203572748    5.02988501840900    5.31200579133987
C         6.18560650812817    6.09264550636247    4.19569930962562
C         4.43462254962021    2.78427793601430    6.79168241784326
C         3.14970819236072    3.26113009921528    6.97636730479925
C         2.75015056041116    3.65129685548579    8.24318094385241
C         3.63289910091987    3.55382707422619    9.30824691839767
C         4.91307627291457    3.06004454472322    9.11408052029928
C         5.31739478979766    2.66927546906885    7.84888591801566
H         4.65113603673781    5.74086107463080    0.93689209199792
H         6.18148351625941    4.90489870771423    0.64816808385530
H         3.78587317842803    5.13730779640571   -1.20614017051556
H         5.50210471145812    5.23795435490483   -1.62423471383203
H         4.22013830703181    2.90986766413592   -2.09490560003961
H         5.78253495312401    2.83336477392465   -1.26554250975056
H         4.34160007678786    1.70276536998769    0.33742399365624
H         3.00370063243688    2.81376846780413   -0.00685495086294
H         5.57818245363200    5.38267517903452    6.19035760955070
H         7.11491818497648    4.70651043955864    5.63658487003176
H         7.20853436406703    6.39688685598234    3.95882171342491
H         5.60085218533903    6.98380304195329    4.44317736730990
H         2.47299677547016    3.31664273748461    6.13504040712622
H         1.75018177630043    4.02612409426594    8.40050373000045
H         3.31768271078404    3.85703766923329   10.29544442004999
H         5.59434009658526    2.97571780907226    9.94733735027800
H         6.30129023689610    2.26662189320284    7.66176328665587

