135
CSD_code = NUCKUS | q = 0 | S = 0 | Stoichiometry = C48H81N3NbPSi | MND = 4
Nb       -1.10526809676654   10.75841635718282   11.82339556710190
P        -1.23297862327900    9.96993336343192   13.99858434297559
Si       -0.74875467225660   10.56231006254967   16.09551797047181
C        -2.27234790964274   10.11425352028236   17.21348604292578
H        -2.91398003793482   11.00126600787446   17.24640783782180
C        -3.10430115214520    8.97889425904989   16.62962281160992
H        -2.53945095363151    8.05105601376571   16.63054770278991
H        -3.37443343549615    9.20150082798751   15.60024627603114
H        -4.01399767651871    8.82918787081535   17.21058641218059
C        -1.87796068393287    9.78157653477834   18.65100103964054
H        -2.76802896891561    9.61627954185270   19.25749589694536
H        -1.30442779996767   10.58576072309242   19.10152943030987
H        -1.27720493841345    8.87735538752991   18.68474945158319
C        -0.43334127933671   12.46763603092516   16.28276463513372
H         0.54602565350141   12.69727866975577   15.85704052010193
C        -1.47561848849311   13.24562009207063   15.48773070148626
H        -2.47246577376042   13.06149648984670   15.88243197776077
H        -1.45932727424738   12.93306630946783   14.44101475164291
H        -1.28688199068473   14.31833945586544   15.54049073731256
C        -0.41615460387398   12.94055825084304   17.73301256531551
H        -0.17530655692250   14.00232051170258   17.78290342969396
H         0.32916501909622   12.39672409444109   18.30743536872725
H        -1.38773567958881   12.79529671244458   18.19718935085725
C         0.82527797732687    9.54981393645776   16.58753120850817
H         1.07661718044223    9.73467578058603   17.63561217254232
C         2.01509651290386    9.96314835820679   15.72819998574347
H         2.87841219972853    9.33199351495418   15.93629713717088
H         2.29664044143302   10.99533524545732   15.91659504243543
H         1.75813846218045    9.85939112200220   14.67346940668497
C         0.57160618925435    8.05786049591827   16.40839655556645
H         0.24389644112783    7.86457561003083   15.38862345130995
H        -0.19950766664922    7.70373702125292   17.08583426417288
H         1.47958779513791    7.48582812029138   16.59757650536463
N        -1.58449289560882    8.98767636114975   10.98463235979147
C        -1.83946942467380    9.07211342006751    9.61167155532293
C        -0.80401009320915    9.36433472174144    8.71514895302570
H         0.20733631526349    9.46305447535737    9.09291589318175
C        -1.03914295599911    9.48374770458517    7.35441311539855
C         0.09513822221917    9.72408168162023    6.40325255198406
H        -0.20143945346070   10.40587349503692    5.60828055651517
H         0.39212903026367    8.78199822830934    5.94019207969422
H         0.95797635281060   10.13291071639721    6.92328911218561
C        -2.33408969446218    9.33381231768267    6.87521801557754
H        -2.52340291071797    9.43162715096117    5.81544586025714
C        -3.38426452935230    9.04977211107207    7.73803976917251
C        -4.78762845495215    8.92869288861716    7.22233344729193
H        -5.33586497558964    8.16234906960276    7.76625531632727
H        -4.79265694948943    8.68212609588497    6.16318013719432
H        -5.31496350139207    9.87471828216085    7.35369371915311
C        -3.12971860326171    8.90651837818043    9.09197712702446
H        -3.95201959489840    8.68980360572249    9.76095386636165
C        -1.99251711726362    7.72642576760385   11.58620016686326
H        -2.93000825727035    7.36518695593718   11.14228625711901
H        -2.16554480270749    7.90415373002251   12.65377880788462
C        -0.94695122105906    6.58694811469248   11.46833499356331
C         0.43893956397545    7.11980206175598   11.82895763063535
H         0.79911352732851    7.77868054092791   11.04140573457935
H         1.14546313848071    6.29974275473109   11.94205778034236
H         0.39206871972016    7.68134746688476   12.76439872915563
C        -1.34595105958270    5.49066551426618   12.45974584819360
H        -1.30554260260377    5.86954933592965   13.47819647604716
H        -0.67084814585720    4.64144660304700   12.37849593440641
H        -2.35764251070077    5.14334624343659   12.26137036630979
C        -0.92832671966364    6.00634656874555   10.05214024062448
H        -1.90186051142195    5.59392520457360    9.79371770665801
H        -0.18997369547258    5.20972152279418    9.98132157794590
H        -0.67918379135518    6.77141159230272    9.32065600932812
N        -2.73925906175331   11.96267188589537   11.81287079184297
C        -2.63084444266673   12.94241568435935   10.83954576258305
C        -2.81057014945238   14.31216987971953   11.09496529717576
H        -3.09094884594194   14.64605630729328   12.08518298492298
C        -2.58687264169897   15.26416871914500   10.11758779907267
C        -2.77903084795449   16.72177299409616   10.41833962909839
H        -3.72462809494562   17.06765311084649    9.99942909329360
H        -1.98202090354079   17.31551662147071    9.97419329900011
H        -2.79565189796884   16.90165936412320   11.49080183188758
C        -2.18413007190184   14.86515422254529    8.84738576023963
H        -2.00870757731187   15.61113746562531    8.08491149895748
C        -2.01639213690949   13.52055212070691    8.55294481177068
C        -1.60962166337301   13.06648156621717    7.18226375656931
H        -0.69646490762361   12.47474923314763    7.23249087728833
H        -1.44455152208487   13.91534963865541    6.52219261632747
H        -2.38507214644521   12.43363482313922    6.75094003654659
C        -2.24268667720724   12.57776632442710    9.54349960659779
H        -2.15677962417367   11.52891019615686    9.28411908454851
C        -3.81337117492958   12.09254493256153   12.77565162327994
H        -4.08018769038236   13.14417297790650   12.92936849519208
H        -3.46942288322982   11.68178677957150   13.73559658649667
C        -5.10459297921734   11.33240758561114   12.37311171645151
C        -6.23260807980593   11.77436772880493   13.30867690570293
H        -7.13475480134308   11.20021997357040   13.10968335335704
H        -6.46153167000349   12.82891329444136   13.16840027670684
H        -5.94808330104152   11.61798982964581   14.34686509847135
C        -4.86973849852510    9.83061735951767   12.52736255213860
H        -5.70863589407277    9.26544131670158   12.12543356652674
H        -4.74774824805103    9.57030357867830   13.57686053343575
H        -3.95705784797505    9.54821948609653   12.00257463052545
C        -5.48172807299391   11.65248561675828   10.92509332841605
H        -4.72780317659981   11.26879291522188   10.24002539842312
H        -5.56509277381481   12.72763165230940   10.77537519871494
H        -6.43735256838654   11.19519165421708   10.67528961678207
N         0.35395316678421   12.01735216914439   11.35862896558873
C         1.26710234089896   11.58880061843411   10.41758264229481
C         1.93696664545591   10.37644347334487   10.65308218271554
H         1.75370497255901    9.86436070593697   11.59887254611365
C         2.84941736285112    9.86678476199324    9.74376590312187
C         3.54871955641993    8.56595842758328   10.00675505076993
H         3.06775927624824    7.76205672605057    9.44751869732745
H         3.51516373783434    8.31227400452368   11.06372814302395
H         4.58768681564594    8.61788304685737    9.68710844593808
C         3.10666585237457   10.57666432854024    8.57646361994199
H         3.82371960045861   10.19150450089692    7.86535831065411
C         2.46114967808144   11.78058129001279    8.31534031920140
C         2.77096601830791   12.54845316866688    7.06369301767703
H         3.65885379897819   13.16308952332046    7.21811912186207
H         1.94785411371129   13.20732609270124    6.79553931310492
H         2.97115852716962   11.87559525990194    6.23195446461442
C         1.55083522003547   12.27903131405468    9.23089179108479
H         1.04452464129440   13.21055890371132    9.02008927579304
C         0.36712080157794   13.42259778127378   11.69689188910477
H        -0.48941513984659   13.60310626293326   12.36071368762131
H         0.22679930629854   14.05562684687045   10.80684175298961
C         1.64082329311423   13.89839443664725   12.45128286789710
C         1.25307876332080   15.12154825434303   13.28828492170073
H         0.54408515026337   14.84444763571097   14.06411850954267
H         0.79742554740615   15.88431609215496   12.65927499079543
H         2.13293450172361   15.55091835999652   13.76325513308001
C         2.14064995625028   12.78092184891398   13.37026137460168
H         2.81808227385537   13.18347214257741   14.12077455543720
H         2.67853777913242   12.02524619116366   12.80048344513806
H         1.29824688776663   12.29767623239000   13.86749683154822
C         2.75502739035318   14.30481763316273   11.48291397352132
H         3.61761473470520   14.66237945135363   12.04256814047108
H         2.42009902800846   15.10487535654928   10.82495508541464
H         3.07269126648545   13.46423334497259   10.87117936582025

