93
CSD_code = NUCKUT | q = 0 | S = 0 | Stoichiometry = C36H50N2O2S2W | MND = 6
W         2.55704564383593    4.14199665673155    3.78168729294101
S         0.86983400216665    5.48061797319069    4.32534515200642
S         3.22110423679067    4.77231692914366    1.74706165351029
O         3.91802689427199    4.83986474019186    4.72966054230660
O         1.65468583314595    2.63666922520942    3.28547859040206
N         4.35976088689135    2.31758525400409    4.02239221534165
C         5.18262970268706    4.97123160665592    5.10964013953737
C         5.61023628308702    6.04877222882417    5.90353092169814
C         6.94103427851696    6.07583914432621    6.29454205573525
H         7.27496349777888    6.89395517636178    6.90556879828668
C         7.85742056196389    5.09708546241447    5.92614255884552
C         7.41548401710910    4.06763659256619    5.10255676717286
H         8.10378977969331    3.30844695769286    4.76063481241353
C         6.09983344577314    3.99605691946664    4.68261837350953
C         5.65294975039764    2.94689516313864    3.69326504888881
H         5.53238001099824    3.42778201305979    2.71153045863576
H         6.43453121594839    2.17404512356166    3.60585718801749
C         4.03759405932403    1.31211584307884    2.99454093590668
H         3.95395129895028    1.84551575884106    2.03566070958611
H         4.86065088861837    0.58159275638884    2.91546602749629
C         2.74653335808860    0.57540770598314    3.24344243295672
C         2.70069961005083   -0.80023274600315    3.36444342157491
H         3.63213474856590   -1.34813727454219    3.36764658442586
C         1.48814847358160   -1.47309983969608    3.46324093808679
C         0.32111118426316   -0.72833909820037    3.33022758993812
H        -0.62137022235998   -1.24408536153544    3.32706652935168
C         0.31164900569399    0.65176586833346    3.19048594023170
C         1.55040255555833    1.31684153648472    3.24295671889287
C         4.40339824705720    1.68067569906984    5.34108423490711
H         5.03609069978990    2.29516585293827    5.99685977784321
H         4.83564824067454    0.67031043829531    5.28884624697848
C         3.02328887503957    1.63828010536751    5.93738926164196
C         2.50803546533752    0.50867306799443    6.55961765972998
H         3.07607906326274   -0.40814872192047    6.56875986520312
C         1.26209722951571    0.58284643330421    7.15703236690450
H         0.83401624767895   -0.28186955133273    7.64092785388476
C         0.58506624737413    1.79374092613414    7.13600880539523
H        -0.37302695773361    1.90659513874352    7.61679836429725
C         1.15930803692699    2.86719445427242    6.47771778879570
H         0.66643842690480    3.83282430106251    6.42609128366179
N         2.34610712428864    2.79214869771252    5.87361675718047
C         4.60569978263473    7.13762271253651    6.25718505685075
C         5.23459648363995    8.26035575814098    7.08814542047448
H         5.60753509704195    7.88554823517867    8.03905676242652
H         4.48046670925927    9.01552410777144    7.29766921696449
H         6.04697102468866    8.73994432148870    6.54732668523708
C         3.45062380669333    6.52946758575795    7.06865556773730
H         2.87225530374943    5.82368818192491    6.46551363716811
H         2.77431792547568    7.31671840528020    7.39305484338476
H         3.83299984726611    6.01306720266519    7.94849577598177
C         4.06031073146033    7.75307447903041    4.95683697081382
H         4.87563438339027    8.16248658114513    4.36325175505127
H         3.36356219472947    8.55400566504344    5.19285337316780
H         3.52273077316410    7.01608264436566    4.34331592119124
C         9.31436561058587    5.12549815466657    6.36524833634410
C        10.20844950630588    5.23239316040925    5.12200031668508
H        10.07701169437904    4.37838759811039    4.46351815343349
H        11.25502079390087    5.27903512786868    5.41552921290064
H         9.96544032799335    6.13282914767924    4.56259897927444
C         9.63437339406484    6.30736657568570    7.28427412746327
H         9.46829136845807    7.25424554277546    6.77675258476837
H        10.68157576152170    6.26445382237886    7.57661265235805
H         9.03201653441471    6.27506016757919    8.18908983553741
C         9.63537905357137    3.83128468680790    7.12677503076911
H         8.99089268642035    3.73858292641864    7.99851764108318
H        10.66986446651201    3.84146502856649    7.46294411557625
H         9.49156967504888    2.95521007546969    6.50052789348809
C         1.48560633689970   -2.98103482719154    3.66733607308063
C         2.24447456410140   -3.30721860030386    4.96225268061890
H         3.27577934927313   -2.96815807575794    4.91407253628548
H         2.24961817791420   -4.38145494816706    5.13343243272409
H         1.76178646204222   -2.82553754979187    5.81054001545300
C         2.17908550009307   -3.65499853629594    2.47528397584762
H         1.66627439374372   -3.39988132879642    1.55086311435911
H         2.16175044377883   -4.73625713921017    2.59327382210875
H         3.21478477305307   -3.33943346976106    2.38689808561534
C         0.07418269446337   -3.56138944809818    3.78835072013485
H        -0.46455525621369   -3.11245087883236    4.61971543764224
H         0.13804210125380   -4.63268062263113    3.96790922493576
H        -0.49138589160456   -3.41037273739087    2.87237536406360
C        -0.95686280487759    1.45618906542803    2.93728897200787
C        -2.17482053528449    0.55545755505994    2.70794047504139
H        -2.41703187047461   -0.01816472362670    3.60003213289530
H        -2.00620753235119   -0.12586533571809    1.87718824304079
H        -3.03620539114201    1.17393758375284    2.46669989158333
C        -0.75715479766326    2.31937302313974    1.67971470879209
H        -1.68049895256633    2.84238590478941    1.44210896602540
H        -0.48098974959817    1.69658242089506    0.83064764301679
H         0.02169647659243    3.07472669002160    1.82764475488762
C        -1.24744561369644    2.37041121019862    4.13382322955525
H        -1.31619775420897    1.78937469916087    5.05240503619382
H        -2.18875220043823    2.89270597210274    3.98053258496443
H        -0.46508980701584    3.12577704491279    4.24267934881335

