65
CSD_code = NUCLUT | q = 0 | S = 0 | Stoichiometry = C25H37AuClN | MND = 2
Au        0.16761478524533    0.70219798612853    7.58255636818715
Cl        0.25308622959052   -1.54028433804726    7.42872305736109
N         0.87024303081450    3.36154615825167    8.52606485209758
C         0.08659080759758    2.68185392068112    7.74790395791462
C         0.71647272082385    4.83834786376948    8.49562983221736
C        -0.28003141750325    5.03018742689848    7.34374738012134
H        -1.08653518477612    5.70310777069451    7.63043021401394
H         0.21996135843758    5.46392029963647    6.47861476652770
C        -0.82142040619342    3.62017669829105    7.00817391993366
C        -0.84046154896476    3.33899394041573    5.49157852637636
H        -1.32586095927254    4.20256610621450    5.01251006520709
C        -1.64060419173037    2.10838381644369    5.16996945914938
H        -1.43466187270261    1.67630206562899    4.20066400331843
C        -2.54596227311752    1.54604168066537    5.95756205683273
C        -2.87060252685594    2.10133159102818    7.31337348215959
H        -2.50738883146460    1.40145577415892    8.07235275646484
H        -3.95619114839504    2.16494591652950    7.43063184113082
C        -2.26595911775908    3.48321383829150    7.53203502407007
H        -2.29761741038695    3.73241527688445    8.59561528567946
H        -2.86965744110371    4.22205976751147    6.99856788362058
C         1.79988586866081    2.73715395226224    9.41667143136102
C         1.37138271083722    2.32772633361233   10.68732326068583
C         2.32059463258416    1.84072859322724   11.57683148328394
H         2.01299402069660    1.53308354467604   12.56351765968243
C         3.64734792612960    1.72488744338903   11.21550650026198
H         4.37271796061094    1.35812131231103   11.92588991233169
C         4.03081671331816    2.02258787313539    9.92375165969239
H         5.05280142883316    1.85564193979555    9.62320530971257
C         3.11922622251280    2.51606115404425    8.99957253677940
C         2.04870350661619    5.53475173174252    8.23345982753663
H         2.77084466008019    5.27688045455317    9.00465366516012
H         1.89678114332555    6.61165106175846    8.25109286174397
H         2.45536573916025    5.26637106133614    7.26298252292992
C         0.16620600392147    5.35067167374486    9.82607159630035
H        -0.80901111574416    4.92615722427889   10.04624023653155
H         0.06331727124418    6.43235468139466    9.78012362277983
H         0.85161237596500    5.10590366815353   10.63373726096307
C         0.56394968866795    3.19835209201156    4.89997950105064
H         1.05033007642437    2.30951608151359    5.29701047932023
H         1.18305223553368    4.06628157576413    5.11940973013488
H         0.49993597435930    3.09875602788295    3.81892283953704
C        -3.26136250292148    0.28521241686907    5.58884353283031
H        -3.06790939352860    0.01351203993930    4.55492709689626
H        -4.33569464718474    0.38998729179406    5.73452633016930
H        -2.91305389732761   -0.52757617452111    6.22625528809758
C        -0.08581969767071    2.27769472712068   11.08752208454962
H        -0.69112125509658    2.74306176166612   10.30567695183406
C        -0.36524975049530    2.98735882372001   12.41498697442006
H         0.09926501767074    2.45872635166427   13.24281068603176
H        -1.43739511899494    3.01622560237664   12.59688051122971
H         0.00938213324116    4.00794850733273   12.41132752272539
C        -0.51935931060939    0.81063026906221   11.18618447584775
H        -0.33460005616057    0.29268766233511   10.24588506158303
H        -1.58217623455235    0.75121521698456   11.41079679591179
H         0.02867364614788    0.29592388853543   11.97077461501978
C         3.55420206268935    2.67011270967820    7.56038403309918
H         2.74976672320251    3.13975578061329    6.99005071928545
C         4.82389907756988    3.51142038695913    7.40632969370624
H         4.73288847358834    4.46909060330602    7.91309498515042
H         5.01524638940764    3.69632080447834    6.35146841660418
H         5.68648175556566    2.99199713600175    7.81461395060219
C         3.78126107705642    1.27548123210059    6.96616543383853
H         4.59146927450942    0.76334802068041    7.47843185694083
H         4.03455683429004    1.35702196274753    5.91139772295687
H         2.88187975357418    0.66783993789188    7.06030663050411

