91
CSD_code = NUCLAA | q = 0 | S = 0 | Stoichiometry = C33H51NO3S2W | MND = 6
W        14.88736532800295    1.96658831860271   20.53440025718202
S        16.37079018650575    0.60189245106750   19.60736589182405
S        15.90408228339223    3.91674867288554   20.88850488800731
O        14.82284285074921    1.34693570623298   22.22279862316525
O        13.86452180045788    2.41438409768443   19.13270168008295
O        13.07601299902951    0.07059880870494   20.44242670606431
N        12.51018180115162    2.59664133206300   21.45703527643749
C        14.35268524573357    1.16671703055672   23.45187347860010
C        14.98435960250097    0.33196589342472   24.38840911934382
C        14.34888724609877    0.13949444388414   25.60790050307491
H        14.81707061895987   -0.50672375353744   26.32707010924659
C        13.14429502189163    0.74787685256281   25.94075916802770
C        12.58675520303062    1.63318900187443   25.02357239402739
H        11.68558043328461    2.17670539392419   25.26738464289828
C        13.17918151885922    1.85931291450081   23.79616110184162
C        12.69023000980725    2.95218492821604   22.87882765800484
H        11.74499512700389    3.35783664540361   23.27867336543407
H        13.44317723922621    3.75482520609929   22.90743504651096
C        12.16113340795409    3.84333245985056   20.73526046790211
H        13.01202087896623    4.53059926376906   20.85692134934313
H        11.27513864019709    4.30470284923755   21.20163576819953
C        11.90723506635704    3.67373608856627   19.25766173936930
C        10.81060052351624    4.25720656737383   18.64313269373523
H        10.09553481086927    4.77283461112023   19.26418164509076
C        10.64941898496026    4.19763481230041   17.26674434612542
C        11.63682652634953    3.55671652349328   16.51966966212581
H        11.53037740958899    3.53451961369733   15.44889454059644
C        12.74788932459392    2.95523847957179   17.08546277159948
C        12.86088025352264    2.99448847355468   18.48678172797682
C        11.44733568760880    1.60127505317897   21.27846028696922
H        11.01393442995621    1.75101593036313   20.28316777641849
H        10.65403116753623    1.72395813179876   22.03107949030271
C        11.98168581231680    0.16971962362918   21.34210155597749
H        12.30314674714641   -0.09757404461852   22.36043297908336
H        11.18500507409417   -0.52336329182229   21.03340335369153
C        13.47831865971071   -1.27160350300025   20.20656566098146
H        13.67095014574271   -1.79449601898175   21.14858174142626
H        14.40033048455999   -1.22034046420736   19.62249757369633
H        12.70343253751657   -1.80498537139732   19.64510263530198
C        16.33201356781436   -0.28679575794905   24.03925864702535
C        17.31569864741842    0.82898950193874   23.64548339633884
H        17.00769929512037    1.34810089928590   22.72655283769407
H        18.29933224031886    0.40244506959886   23.46367806770814
H        17.39646077986270    1.56276285981061   24.44541524345002
C        16.15895414714759   -1.25577167349415   22.86107958045910
H        15.40777176124610   -2.01027500191457   23.09404190164237
H        17.10016908655887   -1.75848113375063   22.65301059170549
H        15.86725013689596   -0.71839059513421   21.95461008971606
C        16.93684220404563   -1.05913491448434   25.21596259917265
H        17.07528066653486   -0.41197582624816   26.07892302177386
H        17.91115626337011   -1.44559186467063   24.92607832880678
H        16.31296073857751   -1.90499979415290   25.49696978383115
C        12.44539469689425    0.51795413020596   27.27282323144425
C        13.16518716200321   -0.50861228683542   28.15139244270133
H        13.23764810805118   -1.47134410926686   27.65078660716438
H        12.60486548995523   -0.65077553715042   29.07318121638240
H        14.16237507450374   -0.16683288418201   28.41710403484500
C        11.02191215261073    0.00444173652573   27.01215451417792
H        10.43653138002503    0.72350662264718   26.44588902394987
H        10.51204894366614   -0.17907578799839   27.95532735604793
H        11.05490967932810   -0.92764426242613   26.45156084708593
C        12.38630587808149    1.84613972092589   28.04045269906537
H        13.39084725676740    2.23129156621785   28.20028762019436
H        11.91400091088831    1.69868355221256   29.00924249353660
H        11.81838999204341    2.59488681151110   27.49537586559950
C         9.46275286506943    4.82123728199797   16.54691266405459
C         8.46662120426666    5.47363705631583   17.50954728924868
H         8.06338688235720    4.74560764264027   18.20997103799118
H         7.63596231728858    5.88949580318972   16.94316643583801
H         8.93241622267538    6.28479871672896   18.06393422142003
C         9.97353909131038    5.90235023685487   15.58435860747418
H         9.13649019053482    6.38151983798125   15.08113271115145
H        10.62959857331372    5.48201945589599   14.82769809902313
H        10.52808715247356    6.66075991926958   16.13252656965546
C         8.72042854647547    3.73236340175551   15.75918660938431
H         8.36787384385288    2.95401470227317   16.43292687055847
H         9.36352149788828    3.27257093773959   15.01444950179734
H         7.86116724740544    4.16085910432308   15.24787512680851
C        13.85220033000015    2.28646262751931   16.27849538276818
C        13.60798955478051    2.38275819716311   14.76937479808757
H        12.68953186628617    1.87324251398045   14.48533025726775
H        14.43156304824338    1.90639829621682   14.24251845116234
H        13.55874428750199    3.42010447193346   14.44645640792513
C        15.19215609542488    2.97563088906263   16.58995871570780
H        15.12952576330735    4.03955857285257   16.36849466606186
H        15.98030127609481    2.53841484977027   15.98136613956535
H        15.48508093464188    2.85817404046810   17.64341770849830
C        13.92963104703511    0.80059462951314   16.66099261431441
H        14.21648782801159    0.67935973609492   17.70923525411292
H        14.68052002029278    0.30065927058324   16.05387054068780
H        12.96807496481738    0.31511703486384   16.49862160222093

