71
CSD_code = NUCNIJ | q = 0 | S = 0 | Stoichiometry = C25H40AgBrN2O2 | MND = 2
Ag        9.50856415324231    6.77280498311090   14.66311108548937
Br        7.70684457794095    6.83546362271035   13.07135672150936
C        11.15711545422029    6.71500522010788   16.10214774163180
N        12.48880189133945    6.67045935765751   15.85177551840258
C        13.23009019369637    6.66640357082815   17.01375797939368
O        14.56474343465636    6.64450733812385   16.81676322279306
C        14.73847629855300    6.39378181854538   15.42842308630286
H        15.05316215808830    5.34998408483843   15.30548607106671
H        15.53555790798128    7.04392254678804   15.06407219383666
C        13.37981983542388    6.64342132860244   14.69920777816902
C        13.42184241201068    7.97776176249163   13.91418742481957
H        14.31496938825095    7.89223307434108   13.28163841150325
C        12.23299606985036    8.11369868038566   12.96388512437340
H        11.28896803156188    8.14175359265709   13.52478245077139
H        12.32270075298347    9.05030573377410   12.41294470934841
C        12.18100518937109    6.94584733620577   11.98781168087593
H        13.10520005140023    6.90400844730168   11.40452209301231
H        11.34921772139236    7.08525744038186   11.29609083813391
C        11.99413383773864    5.63763981378548   12.74776101503352
H        11.03285488125926    5.69081764717256   13.29316705574707
C        13.12716249210711    5.45548459469977   13.75510486154885
H        14.05213810004688    5.29116681022330   13.19469793395911
H        12.94003868300844    4.56350532931111   14.35918961225628
C        13.63108424079313    9.21428512044822   14.82297195717660
H        14.18877382062755    8.89919484417524   15.71124836855008
C        14.48328337456616   10.25553603485885   14.09512740197177
H        13.99311167164458   10.58174933191561   13.18089909769362
H        15.45970982373583    9.85082813529644   13.83668783505633
H        14.63426976893688   11.12658622751890   14.72817910052566
C        12.33726498508812    9.87412654708929   15.30080287157647
H        12.57343610720790   10.64033238903020   16.03655492986501
H        11.66346137449501    9.15834978876742   15.76490069889686
H        11.81526924337024   10.35080110084111   14.47551601282763
C        11.93240818094458    4.44483589674534   11.80025009103055
H        12.84911320428677    4.36929583876297   11.21797845407848
H        11.09650476935019    4.55730519649334   11.11523103864499
H        11.79758740219513    3.51877559353030   12.35440351047365
N        11.09439231073956    6.73462119559631   17.45626039050838
C        12.34736822241387    6.69784232221565   18.02925040372882
O        12.33740842443482    6.68712551556232   19.37850030584482
C        10.98933471999543    6.94360004087612   19.74944588518732
H        10.92269787186693    7.97965721632838   20.10425741534205
H        10.73118943926840    6.27531357710360   20.57264838846037
C        10.07699061530322    6.73549364454639   18.49915121140391
C         9.30262262637680    5.39826218343835   18.60604440051310
H         8.79652076472956    5.45442585155343   19.57857145549245
C         8.20098259222705    5.29867300489166   17.55181442699834
H         7.66782313235695    4.35646213855223   17.68123097434911
H         8.62969219801313    5.30740333244380   16.54085225030935
C         7.22614828060200    6.46219338010862   17.67499330929019
H         6.42736341163539    6.34883499824607   16.94084747490509
H         6.77429514459976    6.46742638193858   18.67094309570501
C         7.95204559175450    7.78074633630521   17.43361967471020
H         8.35743403572951    7.76674395383945   16.40403933931185
C         9.10878241848268    7.92790354383848   18.41972623664372
H         8.68417175536044    8.06030265821184   19.41918480664600
H         9.68202437450117    8.82730750144314   18.17894714314766
C        10.22715989882727    4.15664769751118   18.65210490324105
H        11.18117032715560    4.45320109087224   19.10055912600249
C        10.53053222447023    3.54220980209092   17.28511912630937
H         9.64347148619218    3.08003314846880   16.86050332328564
H        11.29056685893278    2.77146441684162   17.39696685842009
H        10.90181523384565    4.28141809811149   16.58020850530435
C         9.61293674430133    3.08499265812534   19.55459670298756
H         8.64307768551670    2.77273118722316   19.17465989470221
H         9.48215036888466    3.45538138693722   20.56931396712340
H        10.25894164426282    2.21122999825675   19.59338821839697
C         7.00405285887232    8.96895538418063   17.55075023057166
H         6.55252811458771    9.00331564748998   18.54075754831683
H         6.21118382173339    8.88634477043604   16.81236555743483
H         7.53374331848453    9.90329975682998   17.37984147105298

