43
CSD_code = NUCRIO | q = 0 | S = 0 | Stoichiometry = C19H19AgN4 | MND = 2
Ag        3.70383030024127    1.69409504824233   17.02257473283655
C         5.07480362758581    1.24702454163571   15.44311208861703
C         5.04758320617282    0.38668742412614   14.33920777009195
C         4.07715443377362   -0.65852140218912   14.05623200931304
C         2.73500116148761   -0.43004986030169   14.36303703925092
H         2.43635901133313    0.52656843743126   14.77822628514162
C         1.78819244182248   -1.40884760313071   14.13365492198260
H         0.75416796615060   -1.21730360048151   14.37606907208754
C         2.16468396374984   -2.62900300116152   13.59577954853035
H         1.42419559163398   -3.39331228977206   13.41480903666811
C         3.49617879385877   -2.87013844998716   13.30210203860962
H         3.79757076710770   -3.82578481520697   12.89878344054326
C         4.44929765721285   -1.89518070410314   13.53093399140892
H         5.48850609540446   -2.11445896303889   13.33392990361792
N         6.16981919064375    1.99700345328496   15.19266949798424
C         6.65577887733298    3.02091349634817   16.04342921538552
C         7.77783107027687    2.76108975371152   16.83089424394773
C         8.45607864434168    1.42656006833871   16.76300697156647
H         7.75477360918435    0.62882876004389   17.01110438610997
H         9.28587847952028    1.38319115571189   17.46270817459957
H         8.83728684881061    1.24351830191800   15.75820830953028
C         8.23032360138053    3.75932696378979   17.67671683915461
H         9.09357212985656    3.57026317105822   18.29816768335769
C         7.59501242113198    4.99251533725913   17.74798330008560
C         8.08371089333823    6.04389142808445   18.69439076379763
H         7.64467400035878    5.88247726416992   19.67917993197309
H         7.79646005522237    7.03625159282709   18.35618635140108
H         9.16561655779340    6.00181119178520   18.79779139280891
C         6.48799550045162    5.22218915556715   16.94476607391439
H         5.98639311537661    6.17752075622740   16.99097293894875
C         6.00078557552675    4.25145598663324   16.08213713734507
C         4.79827843076712    4.51690303178392   15.23028509154665
H         4.94823551936321    4.16297864690621   14.21095917188000
H         4.57594774559901    5.57973308353468   15.20364623994850
H         3.92253006689945    4.00032124088437   15.64758077432988
N         6.80059778292344    1.69299867258425   14.07960758914390
N         6.11403303096741    0.70624304858326   13.55976533835203
C         6.51053370597348    0.17407532878899   12.28833023859977
H         7.02913846881791    0.95871884004531   11.73853345353574
H         5.63029624449697   -0.15317205831184   11.73614559384393
H         7.19242118138682   -0.66898059250180   12.41720111299987
C         2.29899395811850    2.26324601412094   18.35339113485880
N         1.49637827663597    2.61375214478534   19.10698917037818

