59
CSD_code = NUCSOV | q = 0 | S = 0 | Stoichiometry = C19H35ClCoN2P | MND = 4
C         6.74896358954782    8.66940834484802   -0.17324053009467
H         6.92856703358098    7.82023249634764    0.49680293005141
H         7.66678744385811    8.83207439855587   -0.75586870133360
C         5.61854240776483    8.28081678405296   -1.08043477633213
C         5.82656620968606    7.45764072062128   -2.16909856343016
H         6.82840758544437    7.13565623005464   -2.41003347071740
C         4.74343832094963    7.04556066586608   -2.93257668292089
H         4.87481962273255    6.39871335948344   -3.78494131015231
C         3.48398858436896    7.49473042756975   -2.55908564114701
H         2.60884032025855    7.20159558483574   -3.11963584586294
C         3.34192821595421    8.33130880207749   -1.46906167914248
C         1.99911197294719    8.87219492943320   -1.08658683655727
H         1.21574748194778    8.11765648912739   -1.18378575753187
H         1.75940817473654    9.69441188239978   -1.76724921678080
C         6.97778064144649    9.71986728582465    1.99178074331823
H         6.54673478682800    8.82350013154533    2.44851409476755
H         6.63238695594177   10.57772670524250    2.57160495876144
C         8.50246919795242    9.64271721342032    2.06913304936858
H         8.89739870682056    8.81321754330040    1.48590630494694
H         8.79037190799994    9.49216736900313    3.10658496043033
H         8.96490605083899   10.56400195658829    1.72515024863603
C         6.86487329622979   11.08163191404753   -0.00086780979265
H         7.92649775563858   11.00541162768056   -0.27858220047814
H         6.74913794117721   11.88322290945146    0.73154305534509
C         6.04526618557102   11.43736533796826   -1.23354982872446
H         6.17349258192043   10.70477601412372   -2.02810063485618
H         6.35014605187917   12.41221067514931   -1.60700473755176
H         4.98557128549723   11.48584633190413   -0.95992824513010
C         0.91876570173006   11.01145196199669    0.56400230105806
C         1.65503749320338   12.11891535599456   -0.19737020556237
H         1.91134372428991   11.81141162639915   -1.21111074155331
H         2.57159377926290   12.37601698628096    0.33105950177776
H         1.03384596430391   13.01090972849024   -0.26219350266942
C         0.65829729000555   11.50369328186789    1.98602957256217
H         0.17969476947111   12.48196151103943    1.95805728155079
H         1.60168520552846   11.60051483850294    2.52059468711863
H         0.00246894448661   10.82665965477456    2.52810293476361
C        -0.40066823323504   10.69554617524059   -0.13993026804508
H        -0.94842415820677    9.90265064835245    0.35903426603741
H        -0.24950186111232   10.41054739330409   -1.17839238435358
H        -1.02485145838191   11.58901718958820   -0.13019343649720
C         1.59821162673817    8.18954959037904    1.74329596991416
C         2.50986825965534    7.01086481949564    1.38854055766421
H         3.55414341021945    7.32348214965618    1.45210993717354
H         2.31995514679845    6.63422058466713    0.38538713061015
H         2.35562599575246    6.19329229330962    2.09189134967306
C         0.13816719515158    7.77073711475852    1.60749933059285
H        -0.03077503155030    6.86330356547926    2.18755127244396
H        -0.12614790294095    7.55895448015018    0.57305138211126
H        -0.52940856667324    8.53679226494879    1.99316319611347
C         1.90876428978441    8.60079022838825    3.18390193664002
H         1.18816829853296    9.31777582958347    3.56401645826984
H         2.89791012404941    9.05553958305932    3.23426996024499
H         1.89424991124930    7.72838835628886    3.83633448869275
Cl        4.26160100588881   11.34396754700266    2.18258840631637
Co        4.29959125566528    9.87718412483813    0.64977625162390
N         4.39744939247892    8.72763378071016   -0.72169521896508
N         6.41000552065108    9.84150777951234    0.63953894660084
P         2.16408259767460    9.59415542541315    0.61260076100710

