87
CSD_code = NUCSOT | q = 0 | S = 0 | Stoichiometry = C27H50N6Si3W | MND = 7
W         1.23728421696462    2.59093350047645    4.02126891830412
Si        3.52070464349944    0.81019016433095    2.15994117805930
Si        0.17738205334360    3.71099804984650    0.89037896679235
Si       -1.53092010556802    3.63865013040930    5.67586530120134
N         1.28495616578984    1.09994869992612    5.29014001473146
N         2.36434754646373    1.97564523343306    5.63381623125965
N         2.90752197107309    2.26300369415258    2.85950415132737
N         0.58846119788436    3.93718421737836    2.54340400125273
N         0.17064828680636    3.72626699212625    5.39453541645778
N         2.45356467038414    4.57330098738847    4.33907861558234
C         3.71721666152363    3.44407089052096    2.60784276902097
C         3.81998997227273    4.25774461242636    3.90339275998428
C         0.54369871128252    5.32151113692035    2.98636415176743
C         1.91921230214398    5.70363291952632    3.55298071864009
C         0.86113624779156    4.72998679857122    6.19010783435902
C         2.33967510930958    4.84922956990969    5.77541420935524
C         2.33868040166448   -0.62567571661370    2.58057869888252
C         5.30499336808707    0.41339472212623    2.76008451834077
C         3.71306442575714    0.95032867073119    0.24880369155092
C         1.46637385783028    4.49767202406472   -0.31482726942114
C         0.53639688219584    0.59875137096388    6.32656178679030
C         0.85568165881172    0.80087310022763    7.67926412563569
C         0.09490625312020    0.21984622678125    8.67292780409102
C        -0.99422000291279   -0.57764542205322    8.35957213250978
C        -1.31633149607639   -0.79156045586570    7.02593900969549
C        -0.56597367573548   -0.22042686156475    6.02149334844516
C        -1.48479771702595    4.57806975251189    0.45363501877345
C        -0.00413099036501    1.88082932577108    0.39698270481258
C        -2.35561786795815    2.64355638756605    4.27617018050865
C        -2.02337733146399    2.94650289711283    7.39512525782332
C         3.53405807402487    1.29886687030543    5.91894738308887
C         4.66712705333443    1.98426016296906    6.40291336212942
C         5.83215110942218    1.31635300338917    6.72062998235744
C         5.91958838903685   -0.06036286194896    6.60199645879796
C         4.79999834222944   -0.76160478702740    6.18062441006990
C         3.63428760391817   -0.10655349109773    5.85152389464660
C        -2.36124068246609    5.38373350608884    5.63939626461567
H         4.73464123013505    3.19229477116254    2.28129895549554
H         3.25897678312425    4.05402785844691    1.81085856075625
H         4.42227663447227    5.16974554727975    3.76650173269571
H         4.30963262438634    3.62345217019089    4.64677758330617
H         0.29887798755466    6.02242587997568    2.17771350426973
H        -0.22532263266086    5.44193506295595    3.76286388443449
H         1.85801588789581    6.61142756964603    4.16560970467604
H         2.58845839263727    5.90809092132373    2.71274399980105
H         0.37752157885660    5.71469709261572    6.07811415670755
H         0.82330949483383    4.48215555359361    7.26283606814196
H         2.91332733947703    4.10092904417078    6.32422853020413
H         2.73134130599346    5.84922934593374    6.02364094248837
H         1.72447305133929   -0.90455139466337    1.73076462007943
H         2.89849465723018   -1.50610894028235    2.87670153436376
H         1.67647980442408   -0.34818239033256    3.40150565188274
H         5.39921233212420    0.44819588759502    3.84061823811235
H         5.60072114841548   -0.58013304810788    2.43923050760153
H         6.02956777385902    1.10805268608309    2.34353067845591
H         4.44260331077753    1.71149625729318   -0.01350971921916
H         4.06853603102277    0.01214492280291   -0.16476093660625
H         2.78564114275287    1.20141953497745   -0.25523148108402
H         2.38472029331923    3.91952182322447   -0.36832103519781
H         1.06029913375755    4.55093742222177   -1.32006490835386
H         1.72942125007642    5.51202687539848   -0.02451416920616
H         1.71006321658296    1.41255371185223    7.93186086688116
H         0.35759518096752    0.38789106792759    9.70815656358435
H        -1.58145513898843   -1.03306320194742    9.14254579323055
H        -2.16017803367811   -1.41758832854787    6.77156451431328
H        -0.79925620149845   -0.40093484004114    4.98003016234018
H        -1.39302145340980    5.65997611018407    0.46708308683424
H        -1.81346341001457    4.29819545505330   -0.54161260843960
H        -2.27718155829791    4.31106861040264    1.14689434265739
H        -0.96420166113307    1.48209851137987    0.70478580937827
H         0.06595085516417    1.77196702667570   -0.68064823271192
H         0.76807801293359    1.27376407856790    0.85662589464311
H        -3.42873561759993    2.80657787696363    4.28632634028151
H        -1.97521162557297    2.94106143596756    3.30142398542738
H        -2.18636594439796    1.57938562731483    4.39767072241960
H        -3.09740950901075    3.01140087388210    7.53589758366358
H        -1.73795707064000    1.90754830332697    7.51622882403590
H        -1.55800713133549    3.50847421593688    8.20000565111706
H         4.62942839102037    3.05173918332029    6.58012533169767
H         6.68076778248583    1.88142348319516    7.08200362450783
H         6.83309912549265   -0.57656890628310    6.85457732050040
H         4.83676457564494   -1.83961741007885    6.10962419826071
H         2.77260017571916   -0.67914851735747    5.54507273306577
H        -1.96665751108747    6.03927191907763    6.41022990524481
H        -2.25200315697488    5.89120942947744    4.68471883574908
H        -3.42506982184428    5.28457209873770    5.82740795162743
H         0.11950366730126    1.56580570974945    3.24438619366884

