35
CSD_code = NUCTUB | q = 0 | S = 0 | Stoichiometry = C12H12N6NiS4 | MND = 4
Ni        0.88841684768217    2.72727711808435   15.00446221968524
S         2.27206393227081    5.83953385742738   17.87580646477135
S        -0.10414478411405    4.96271225722773   11.28069472631666
S         1.61810905321776    1.18197574877055   16.34685086505642
S        -0.09406040555337    0.96834745912131   14.19050819355749
N         1.83107373529431    4.21435988720542   15.94539501725108
N         0.27269717883150    4.00649003237631   17.67057487242690
H        -0.02308216286375    3.13087287304809   17.23069350723456
H         0.12905832833283    4.08446923633932   18.66356588298531
N         0.15079124544743    3.97092488075475   13.62867763934882
N         1.61774379191249    3.01619689047401   12.08483252518712
H         1.79792832844028    2.28867156290774   12.78182463272496
H         1.74521555978874    2.75977777039741   11.12011209072394
N         1.79370054119075   -2.41451259234640   17.59327831655811
N        -0.85913465394125   -2.76074435585283   14.13473058545130
C         1.37948187793083    4.55305218102299   17.12499859603616
C         3.31647980648766    5.89513889259116   16.46810853842934
C         2.91278095450033    4.96635461023257   15.57538777730973
H         3.37853629136351    4.77965225947123   14.62353020951282
C         4.44345605978547    6.85623879359902   16.38526574897670
H         4.95859488818706    6.73625274284588   15.43568826176299
H         5.15260518043083    6.68599621898715   17.19469281697186
H         4.08302149919112    7.88122503038366   16.46576373800318
C         0.61506669658552    3.85837041841958   12.41135620341562
C        -1.09313286102827    5.60144936997782   12.58055627029548
C        -0.80265427057274    4.94770121936522   13.72543950591946
H        -1.26539192675619    5.13410161000882   14.67884374873585
C        -2.06782909596040    6.69335735603364   12.33916136372421
H        -2.58768838770045    6.93158596155456   13.26349414925201
H        -2.79992457188288    6.39496820679846   11.58972729535106
H        -1.56276130989092    7.58804960705044   11.97654223688804
C         0.68011337971495    0.05425587606359   15.43467277334908
C         0.57231715118882   -1.28930675887665   15.65347579726457
C         1.24566924754300   -1.91104167435573   16.71880283777586
C        -0.21691714506775   -2.10195454711910   14.82178459174532

