39
CSD_code = NUCVEM | q = 0 | S = 0 | Stoichiometry = C17H14N2O5Pt | MND = 4
Pt       12.14822194747074    1.81206507026064    5.48107327211728
O        10.55474545927484    1.04598385999058    4.55603011730297
O         9.09704657217869    1.23924368413943    2.91313054670348
O        12.54398810846251    3.04189433791242    1.66332821757998
O        12.91662800350764    2.27976776123886    3.69915324908072
O        14.37874615150029   -0.32523030429483    8.54142945841886
N        11.43783004152229    1.15295761593644    7.18215717649090
N        13.81413003218824    2.40063355249436    6.32229332154375
C        10.04449504131789    1.66359223917830    3.53468016586807
C        10.68987323785172    3.01604513970589    3.18947642225938
C        12.14674337594698    2.76016662232323    2.77095354280147
C        10.54462040604842    4.07657256196918    4.31255682323504
C         9.65680748900074    4.91465657107053    3.37538316772642
C         9.87251740736204    3.90049220207597    2.24201938498431
C        10.11535921626169    1.12003798382337    7.38677249283098
C         9.53043895592889    0.38638747976292    8.40022130623874
C        10.33914805875746   -0.36209881907551    9.24646128539529
C        11.70467258804393   -0.31577569489776    9.05013539109966
C        12.23508587880244    0.45870154952088    8.01580887064345
C        13.72363665120302    0.49833995868991    7.93012388386636
C        14.42238367376450    1.61513030971098    7.23064173092372
C        15.75120543299569    1.83091496326554    7.60293020066071
C        16.46014012579818    2.87926418591117    7.05182217067177
C        15.81044668484415    3.70059774779933    6.13870361197732
C        14.49975757598686    3.42549660369127    5.80133213894743
H         9.50410060428902    1.68259495136538    6.69404023529814
H         8.45831819844510    0.39074020249859    8.51187988484066
H         9.91406732008217   -0.96367105650046   10.03419125591515
H        12.39064852711155   -0.87075189733551    9.67129566920657
H        16.19410287931637    1.15467436133405    8.31770917329429
H        17.48958416381498    3.05293719486210    7.32229441942384
H        16.31567205838176    4.53537311184555    5.68064817797685
H        13.98327837291322    4.02929954055106    5.06738761001424
H        10.04281974305765    3.73004548921067    5.22190629084290
H        11.48157572274463    4.57164274858465    4.58169617102116
H         8.62354655528750    4.98891681119807    3.70773767594924
H        10.03622137824164    5.91411498616196    3.17336322821668
H        10.46206723886234    4.26440233269119    1.40347852005093
H         8.97432912143597    3.41094404133009    1.87275373858191

