97
CSD_code = NUCVEN | q = 0 | S = 0 | Stoichiometry = C40H46N8OsP2 | MND = 6
Os       -0.69924865317027    3.59702554394123   15.00265915302884
P         1.22207402416650    4.25793913413910   13.94683000504118
P        -0.38011524335181    5.41332202003181   16.35968698447709
N        -0.85116143806378    1.83986087750302   13.88548053265941
N         0.33203511844078    2.30025080295411   16.13530530472474
N         1.01728140165408    2.34882394502798   17.26564795680633
N         1.10158587645965    0.25149030435192   16.50554619349086
N        -2.55020230835796    3.14231652509781   15.85436609801310
N        -1.95443303027676    4.64891074089695   13.84157700325399
N        -1.84520468889840    5.48333304168984   12.82099197798514
N        -4.01420258196578    5.28222748515401   13.30932700397056
C        -1.49203553974391    1.70768054269921   12.70852623582738
H        -1.91942150891628    2.61385576123927   12.29939386206046
C        -1.60476028679616    0.52188151130996   12.04331199977994
H        -2.13122424449126    0.47093193670318   11.10281673000022
C        -1.02602879500920   -0.64715538951385   12.59117076135052
C        -1.09729734592904   -1.90577496783130   11.96863202438839
H        -1.62322991053095   -1.99282116686443   11.02858746290272
C        -0.50864162686745   -2.99869388643571   12.54813897617067
H        -0.56622781144013   -3.96385744779834   12.06585879816262
C         0.17177295983209   -2.87652756296997   13.76723385395273
H         0.62965793716259   -3.75007947112634   14.20730417293369
C         0.25822583572725   -1.66408404723478   14.39945122547030
H         0.77750850588723   -1.54506297736690   15.33798475625518
C        -0.33853291026147   -0.52724195508191   13.82494002865191
C        -0.28098763828872    0.75516308384097   14.43918448951583
C         0.38413185186578    1.02818268925237   15.67370974923619
C         1.46867447163120    1.10373094823682   17.46797771157386
C         2.31845377310724    0.70454105337545   18.63262737500831
C         2.36785500738504    1.83821477109741   19.65668726941686
H         2.77102274788536    2.73944683065957   19.20160535655479
H         2.99588265161069    1.55482312242343   20.49905260015516
H         1.36870532042970    2.06128064172088   20.02338576586131
C         3.73042238219394    0.40630571130226   18.11248873254915
H         3.68958731486901   -0.37101248859574   17.35316098911595
H         4.37034105645462    0.07185065559727   18.92683454093074
H         4.16796604341196    1.29989612975158   17.67072303590035
C         1.72924481875626   -0.55913910969390   19.26648091615198
H         0.73494005264723   -0.35789881960975   19.66047266103523
H         2.36310952725007   -0.90516682170897   20.08069115860782
H         1.64970182650727   -1.34403166361811   18.51897824218012
C        -2.75206927493678    2.34484196299265   16.92051464636495
H        -1.86091195500250    1.94701847367751   17.38820894940920
C        -3.98924404014050    2.04606665676039   17.41184683661503
H        -4.09502900955323    1.40011030033420   18.26966004005637
C        -5.13952278295552    2.58874709379283   16.79214976324972
C        -6.44783110858961    2.33090202621842   17.23777056870458
H        -6.58903643218869    1.68315108458454   18.09120734302187
C        -7.52034615649873    2.89355301521217   16.59749672668523
H        -8.52391748058030    2.69232875358811   16.94362938861506
C        -7.32766205436975    3.73263678426068   15.49165350114931
H        -8.18635029520116    4.16659631901552   15.00101043477227
C        -6.06533110578700    4.00325998951592   15.03278922987099
H        -5.89178565566490    4.64749272487212   14.18455338804382
C        -4.94801644248679    3.43728684082445   15.67298409253947
C        -3.61559386948084    3.68425470383813   15.23837836966094
C        -3.27016925931838    4.52807845542589   14.13854512492580
C        -3.09790481869448    5.84922524248919   12.51801840534905
C        -3.44335513717396    6.81448108118834   11.42854932818012
C        -4.56260699341732    6.21617189338851   10.57128669668597
H        -4.22195548841757    5.30416369316244   10.08495189787077
H        -4.87263805041908    6.92448847780078    9.80536831811771
H        -5.41675493066428    5.97251125638475   11.19751633674499
C        -3.93586940749039    8.11258707660115   12.08106436977762
H        -4.78719357624749    7.90458438719262   12.72487439662044
H        -4.23596869147541    8.82868070455038   11.31839004742739
H        -3.14575425993720    8.55701125042204   12.68384585525863
C        -2.21064051515770    7.09699224320914   10.57007136715406
H        -1.41112812920130    7.50624371903147   11.18256199464986
H        -2.45628833943551    7.80967365463277    9.78517898675157
H        -1.85032195880416    6.17953359683273   10.11076509588919
C         1.85908785386510    5.77454028376857   14.75664147470035
C         3.01648329728740    6.41579902209720   14.33212214424779
H         3.57127088181858    6.03146849330103   13.48776648318890
C         3.46864161109495    7.54956792725406   14.98316589853220
H         4.36876982485797    8.04276870159468   14.64666161300315
C         2.76697468797006    8.05189686054576   16.06718580200529
H         3.11997640281999    8.93661737421837   16.57646653333287
C         1.61364507967604    7.42031714711251   16.49682782464162
H         1.07246976317613    7.82047246269465   17.34265947148517
C         1.15219083375741    6.28067238166099   15.84940211740796
C         1.15281587401185    4.72615405316147   12.18026335128381
H         2.05390885476211    5.24456543487811   11.85811344785383
H         0.27345761120717    5.35756647592846   12.05087240160232
H         1.02068789116585    3.81569635463323   11.59589740863170
C         2.70617429392942    3.17394787896535   13.99253866461689
H         2.46523787034753    2.23894124174981   13.48583871490302
H         2.94846629640602    2.95577440943594   15.03162465462319
H         3.55979127004594    3.64286158238053   13.50557437373690
C        -0.13657808388196    5.15306487045164   18.15344524384729
H         0.56160761713582    4.32297516723837   18.26419187707651
H        -1.09545107872075    4.86633981565677   18.58506821213306
H         0.23981345354343    6.04554696506511   18.64968606398456
C        -1.59741290985199    6.79086854940272   16.33839613070369
H        -1.28702448194699    7.60941921508955   16.98593471023049
H        -2.56046013509416    6.40486783190612   16.67396123158059
H        -1.70217230306916    7.14927800336592   15.31532295529484

