29
CSD_code = NUCZUI | q = -1 | S = 0 | Stoichiometry = C11H6CrF3O7S(1-) | MND = 9
Cr        4.90169371358238    6.62295105580881    2.92680344039061
S         8.28756209077966    7.03084552854978    1.55280871779222
F         8.50100439285794    9.67217129736877    1.06525550381948
F         6.48189987996949    8.90201259134941    1.16018924189200
F         7.58062562040907    9.26760213560740    2.97302686356770
O         8.02604606188167    6.92822478152518    4.53560765109930
O         4.60742542362271    3.45948015392230    1.93823880016817
O         9.64246909337386    6.99424922485469    2.01419784268463
O         8.08246880206049    6.76489483446572    0.15063580191077
O         4.51197304847723    9.38983212168616    3.95938349061523
O         1.98498982642526    6.58943249384848    3.51115551279651
O         3.52510511210566    7.77193446781677    0.55735866593301
C         7.18247640417502    6.25521762206257    3.93561379644282
C         7.12444224353571    6.14100332823191    2.49635617939537
C         6.26332057348036    5.27361538758482    1.79398339819623
H         6.42164744600579    5.17630473319334    0.72547673078537
C         5.39550329232122    4.44335231377847    2.50385737667112
C         5.29147218412553    4.63150110181600    3.90161082953200
H         4.60621135970735    3.98683322192190    4.44241814420882
C         6.10444377293588    5.52645859857317    4.58484021246324
H         6.06654992957897    5.57753142785157    5.66610988941970
C         4.16119255775913    3.69624912176073    0.62182123369106
H         3.38494137860880    2.95547103863050    0.43303262577695
H         4.96571470557616    3.56630474997495   -0.11030592337492
H         3.74233846110281    4.70503027976120    0.52884798113066
C         7.69887190095490    8.83097548293220    1.72513342699032
C         4.73909203628482    8.31799319694850    3.58533132276792
C         3.13783476443876    6.56843137188997    3.33035506919051
C         4.13618392386357    7.33849633628455    1.44715617404284

