21
CSD_code = NUDGOI | q = 0 | S = 0 | Stoichiometry = C6H10Cl2N2Pt | MND = 4
Pt        3.19945379090259    5.77539287304504   16.66518086886647
Cl        4.84908952871329    4.91071873310881   17.91321548698417
Cl        4.47177511350145    5.86990540469068   14.81441119743273
N         2.06211999734986    5.67603386101666   18.30210119344604
C         2.43852652299599    6.32592959238389   19.40291302957528
H         3.29542443516922    6.98044413393154   19.30397813884590
C         1.80197118330638    6.17978720101737   20.62916504558873
C         2.30042566632005    6.91290527229657   21.83097848976528
H         1.53025504871495    6.97845711895195   22.59504548317813
H         2.62987765775687    7.91413831370734   21.56504427372184
H         3.15513833186899    6.38267315588141   22.25011216342552
C         0.71795284817646    5.31078419433881   20.69493257418669
H         0.19531330410287    5.15967193803837   21.62746082250846
C         0.32532926401097    4.63605507370872   19.54954907802404
H        -0.50676148836355    3.95028289050025   19.56839466104982
C         1.02209858155016    4.84348352434345   18.37526427449165
H         0.75300893533223    4.31929710299436   17.46717676433260
N         1.68909093904268    6.61619483893005   15.35340257487274
H         0.85132421076392    6.06358846693805   15.19883145506536
H         2.26179330866913    6.61357024301944   14.50129136849427
H         1.42629282010183    7.57288606713962   15.57195105613466

