21
CSD_code = NUDGIC | q = 0 | S = 0 | Stoichiometry = C6H10Cl2N2Pt | MND = 4
Pt        8.11880448930683    7.24264004138945    1.99719131746701
Cl        9.68151604477031    7.33852541575013    3.62000510659324
Cl        6.77976471118442    8.74414208107244    3.00767485130115
N         6.69807725644722    7.14983541180453    0.56357707677499
C         6.61878131194926    8.05254526227599   -0.42008141191396
C         7.75104649248813    9.01242974830834   -0.58198761191162
H         8.47361957765281    8.62479032662697   -1.30051434476283
H         8.25406240384766    9.15689654402195    0.38000983631188
H         7.39146018212272    9.97172032306883   -0.94299080108630
C         5.51911767843837    8.08443028379757   -1.27035782896246
H         5.47919734980548    8.82353263280443   -2.05516099480370
C         4.48389660633239    7.18437662903276   -1.09452879778712
H         3.61909386984632    7.20679654255733   -1.73934452686050
C         4.57897252870151    6.25961150228984   -0.06418026430104
H         3.79426934279926    5.54421080214400    0.12020601962274
C         5.70177437473814    6.28060343125934    0.73798507999450
H         5.81098798973398    5.58694637662225    1.56314828597657
N         9.47546187893617    5.78325213636933    1.13959660660209
H        10.18214402891028    5.83493507593296    1.88239681857800
H         9.90180874929557    6.03286032478721    0.25261520667342
H         9.11574313269525    4.83501910808524    1.08684037649499

