41
CSD_code = NUDKIH | q = 0 | S = 0 | Stoichiometry = C16H18ClF3IrNO | MND = 8
Ir        1.38104577361923    1.50634548470080    5.08714703090333
Cl        1.74542620672750    3.59461108229514    6.00957421552107
F         4.57713983593844    5.26231686158637    0.83188700510863
F         4.11961721937521    3.68426163650540   -0.54884125460408
F         5.37663739248237    3.29042991499979    1.15100037167151
O        -0.07610983514326    2.50199181244823    3.78315599055637
N         2.06690967029075    2.42287007448876    3.34227831491679
C         0.67016350759898   -0.62410792228201    5.22097953800055
C         2.05978932356433   -0.63900130176569    4.96742142021136
C         2.71324678693129    0.08631442343366    6.03810012261885
C         1.71067437702082    0.44281449459753    7.00809266534241
C         0.44482476278652    0.08145164468311    6.46852625632761
C        -0.40454725315947   -1.30388234345273    4.44147202846070
C         2.76416296087823   -1.34913753536558    3.85943845110278
C         4.18693616593326    0.17740902493720    6.26739258524355
C         1.98421005507785    1.04181940291150    8.34769239412411
C        -0.87582434768676    0.18280926607840    7.15920271742210
C         0.83670423111244    2.91943447195921    3.01237853711309
C         0.69844644348724    3.79451565694438    1.91027516454940
C         1.81357426660695    4.12160361886695    1.19061533536366
C         3.06362791076406    3.59419009560703    1.56131130196516
C         3.14798293065982    2.75904136298380    2.65784376943199
C         4.27609094558347    3.95290821399180    0.76363529062226
H        -1.21400468012875   -0.61058163116103    4.22031357659855
H        -0.81716709298435   -2.12754159091978    5.02519923068572
H        -0.02338636166642   -1.69979387570805    3.50443075388391
H         2.11757384870174   -1.47224316828761    2.99443120161247
H         3.07622346923992   -2.33798876298213    4.19930322295351
H         3.65211009528832   -0.80390818671830    3.54871864134868
H         4.73454470417566    0.13576598230512    5.32978933416961
H         4.51570183826005   -0.65497748277460    6.89204564441409
H         4.43395658924887    1.10689578312449    6.77411603099137
H         2.87181140839492    0.58756964390030    8.78361533144380
H         1.14082823986888    0.88874432747677    9.01534695716905
H         2.15923924951852    2.11422646956397    8.25501912209511
H        -0.88928060244440    1.02740214217665    7.84271117604537
H        -1.06951178415420   -0.73007061363473    7.72560619295386
H        -1.67729840436381    0.31320561177244    6.43655535421683
H        -0.27629925369619    4.18689400093140    1.67519138156043
H         1.75117668894670    4.78507958892856    0.34118366112428
H         4.09445271735759    2.35161232085191    2.98584393475443

