52
CSD_code = NUDNEF | q = 0 | S = 0 | Stoichiometry = C19H29NOSiTi | MND = 12
C        -0.59880703256749   -2.56587367292251   11.66888423955257
H        -1.20055526545761   -3.29731192894806   12.19466704933985
C        -1.02036122287099   -1.27704621494843   11.27035987893699
H        -1.99615032588504   -0.84559234165305   11.45300442483367
C         0.09297470097881   -0.59060969289392   10.76221987047937
H         0.11891474623168    0.45306452083793   10.47400142269589
C         1.21795672070894   -1.44435959792847   10.87896031914184
H         2.24531592610358   -1.16660413302312   10.68061191773059
C         0.79016410716246   -2.64924384248722   11.46065280633088
H         1.42487430520019   -3.47901826192197   11.73978029781868
C        -2.71973279239461   -2.68558787928846    9.32189965931833
H        -3.34129009506446   -2.78531446035303   10.20280478727149
C        -2.22875846730603   -3.74910784438075    8.54554235268286
H        -2.35770717364081   -4.80351398687276    8.75278255775688
C        -1.62942025858810   -3.20722033580210    7.39213905619287
H        -1.23314532539266   -3.77179968090480    6.55912809659718
C        -1.76844394853966   -1.80248542406575    7.44836213679465
H        -1.51765537340360   -1.11127775680346    6.65343589079142
C        -2.43374621150105   -1.47948958037006    8.64435881079835
H        -2.78662387665624   -0.49299828228023    8.92009665810486
C         1.38474946240767   -6.84241035233280    9.39165828977282
H         0.45698608294549   -7.30239819926552    9.06691244594283
H         1.39622158762216   -6.85707966358695   10.47695507338229
H         2.20125889041665   -7.46528531377189    9.04379784688832
C         3.24698867443115   -4.32786157424722    9.26467232942648
H         3.18630952069829   -3.24130921620440    9.27663333527700
H         4.05736399984453   -4.61541173395347    8.60281574894115
H         3.51666521776032   -4.65468809980025   10.26477207374357
C         1.51040174337270   -5.10500846550638    6.79212575365144
H         1.32684832194582   -4.10650109308063    6.39996881188650
H         0.71608628866684   -5.75346034240796    6.43366444311101
H         2.44068717956866   -5.46940042286016    6.36908576018405
C         1.48264679221124   -0.85903930973489    7.49220391187253
C         1.15535656440882    0.61463057251101    7.32530482210369
H         0.22701733331972    0.84651411268276    7.85526437819291
H         1.01972496098622    0.83470264507081    6.26324492744755
C         2.31807787353050    1.44611702320550    7.87216393282079
H         2.41886915269716    1.25523491208688    8.94342247254320
H         2.10853636951444    2.50992380087485    7.73724198051471
C         3.61832937380805    1.07498601910732    7.16536366422978
H         3.53351968556958    1.30946502314108    6.10131753385458
H         4.44142303399773    1.66593944602177    7.57265844653521
C         3.91570386178608   -0.41171541094473    7.33590279022456
H         4.05269166534077   -0.63649808455909    8.39631613803370
H         4.84072056333061   -0.67101396353290    6.81645046515952
C         2.76396456616130   -1.26039780747951    6.79197202910255
H         2.65683295800644   -1.08319874093036    5.71869933545744
H         2.95244134010120   -2.32127308018959    6.96045548148710
N         0.80243214854668   -1.63821000619611    8.18192812618461
O         0.36608920933259   -4.15100853817758    9.27249365512734
Si        1.55534969160927   -5.06037891606637    8.71320580733779
Ti       -0.33849725105773   -2.47417482286520    9.30273595639306

