47
CSD_code = NUDRUZ | q = 0 | S = 0 | Stoichiometry = C20H21N3NiS2 | MND = 4
Ni        7.09509480495409   13.29016982616476    8.91284560163177
S         6.42350813914812   11.18936824338934    8.52305978959526
S         7.71421237229469   15.42405039300574    9.06147245410426
C         6.76945286616354   13.62745905484621    7.11192441577478
N         7.22839730640101   12.88378600576700    6.08990772847998
N         6.04633542298232   14.64084435417950    6.60804957983141
C         7.83210800261163   11.62629260564041    6.17299881615078
C         8.69632191902534   11.20058075195264    5.17022789352671
C         9.25126818846015    9.93534414066007    5.20664127181367
C         8.94216404606483    9.07568650409272    6.24921982277636
C         8.09460070264731    9.49076585756545    7.25515688262889
C         7.53412002845795   10.76586335344472    7.24249212434990
C         5.59820301779037   15.76832622351926    7.29969908631571
C         4.49179742049832   16.47549660093829    6.84227283886196
C         4.08021949925965   17.62951459255065    7.48139459103290
C         4.77864060367384   18.09352779721864    8.58585413317176
C         5.87038884365802   17.39378636657089    9.05481603043312
C         6.29377059662644   16.22039224868541    8.43339708701205
C         6.93070197164186   13.48873254042468    4.79696697468972
C         5.87260873830174   14.52596649747692    5.16494241129600
C         7.38754992456710   12.87717232799797   10.63860835541599
N         7.50652719353800   12.50542840430276   11.73322622044117
C         7.60124800726033   11.90930208185454   12.98717206081961
C         7.53335942159586   10.38084162043628   12.87552311849872
C         6.25604615769168    9.87930701421865   12.20102526678768
C         4.98957599814897   10.23957794967485   12.96906788747400
H         8.94360790293615   11.86733532482781    4.35796299505754
H         9.92187899626813    9.62311744072152    4.42069204558672
H         9.36733433395479    8.08387475714339    6.27927290099618
H         7.84435077821253    8.83367912297963    8.07381498342054
H         3.94341644342797   16.11569350370131    5.98461508381359
H         3.21725009140553   18.16482323922860    7.11581660507129
H         4.46579951237799   18.99856652702850    9.08433634056815
H         6.42222963110019   17.74126747438452    9.91453669679099
H         7.83014750182325   13.95714430024718    4.37970902652582
H         6.56682180094554   12.73179307609596    4.09993577088077
H         4.86050768079487   14.17502085215150    4.93051263457334
H         6.03431659354530   15.49330950679474    4.68612608202665
H         6.78079765248925   12.28802567122194   13.60395860226430
H         8.54942219978662   12.21645288887418   13.44080940835868
H         7.60614529615602    9.97128952140768   13.88531230713541
H         8.39575198929864   10.03331523714708   12.30303252394862
H         6.19373584079695   10.28205430180633   11.18801657032181
H         6.32524548920697    8.79304999530171   12.11742827302001
H         5.06562309651165    9.92817605889923   14.00968097207547
H         4.79848753813933   11.30949906860896   12.93616679894820
H         4.13330843747666    9.73972877481903   12.52430093581856

