63
CSD_code = NUDSAG | q = 0 | S = 0 | Stoichiometry = C30H26N4NiS2 | MND = 4
Ni       -0.19044308629531    3.28288920473127    2.58924538765969
C        -0.19825934541366    5.13475455363468    2.58626562356542
C        -0.19749198631072    1.39265691107974    2.59807934945341
S         1.38716326707006    3.40300744964553    1.00445738872238
N         0.88106206691461    5.92384564087486    2.68884710803125
N        -1.18089348173167    0.61635062124924    2.12300244927487
C         2.21612970755946    5.51956121028607    2.58714733391947
C         3.21520334327927    6.26723650028172    3.19882973091505
C         4.54511843910572    5.91405029090408    3.06580186014390
C         4.89092152890007    4.80647046205651    2.30754016661656
C         3.90830730140741    4.05359125113286    1.70088411538160
C         2.56104734447370    4.38339575855144    1.83376124577097
C         0.52159215208833    7.33368834312076    2.78790532204484
C        -2.35545435558321    1.09335178397773    1.53622888965712
C        -3.51230556391166    0.31886146307686    1.51583364949836
C        -4.67557614722504    0.82469646424885    0.96392126737393
C        -4.70221599523246    2.09644455374579    0.42043970130769
C        -3.54769583379343    2.86169028533546    0.41705571913317
C        -2.38027742418069    2.36724127921726    0.96402949327192
C        -0.95179491747865   -0.79980687736955    2.39013025044586
H         1.15218001980600    7.93309834513927    2.12842867585211
H         0.64581584296571    7.68678717277582    3.81864720898509
H        -1.63392543523679   -1.15198381174211    3.17186938994093
H        -1.11060091139264   -1.38977462371257    1.48474645186700
H         2.94935343021893    7.13007929510479    3.79163661513171
H         5.30690318418838    6.50492311712942    3.55169065609358
H         5.92795297595654    4.52830008199151    2.19388848088005
H         4.16278095348508    3.18744416040830    1.10929529842368
H        -3.51847974384710   -0.67111391087296    1.94491972117854
H        -5.56902629738073    0.21783407807800    0.96596749602453
H        -5.61431605029313    2.48907226569765   -0.00184927305832
H        -3.55676753202814    3.85037726131971   -0.01608571741110
H        -1.46139109745175    2.97191432162078    0.92012103851666
C         0.50162932079235   -0.81170288260952    2.86442304356273
N         0.76677934999227    0.60512030008071    3.09261372065892
C         1.95238094123102    1.06747898181981    3.66876820581066
C         3.08863358233361    0.26391763622516    3.71235220564813
C         4.26431597498414    0.75443859062811    4.25163401221824
C         4.32411337161183    2.04049036442701    4.75758063315794
C         3.18971480926413    2.83513521144807    4.73877925218807
C         2.00946804154943    2.35494638557359    4.20682928143550
H         1.10584503009391    2.98364011961553    4.23459768681957
H         3.22460928473547    3.83550726482175    5.14281023247197
H         5.24629079492736    2.42137842824138    5.16863739174312
H         5.14149971744244    0.12444245080027    4.26840030621349
H         3.06921066419810   -0.73760696914122    3.31135647034029
H         1.17440449853133   -1.20271983759927    2.09309572770427
H         0.64549737610137   -1.38015648611062    3.78592744424610
S        -1.75583109574102    3.39838013460276    4.18614838257546
C        -2.94607446847148    4.35547828348922    3.35322738442374
C        -2.61801124798513    5.48882993556879    2.58823949582586
N        -1.28842765871536    5.90870466820660    2.47830719591524
C        -0.94749735880701    7.32235263410923    2.36843521615275
H        -1.58597240318513    7.91853291024090    3.02324353456294
H        -1.07636075992540    7.66576913438931    1.33498063631488
C        -3.62878988194717    6.21832106120026    1.97395089141703
C        -4.95361665303293    5.84959188327732    2.11550862620541
C        -5.28265989512354    4.74485590674411    2.88516702922607
C        -4.28837635274349    4.01010292631424    3.49500761876911
H        -4.52967564958646    3.14652516722327    4.09584405100715
H        -6.31566018580931    4.45481911244186    3.00563228399377
H        -5.72470534363597    6.42639930414775    1.62742725114881
H        -3.37615015571136    7.07909247708702    1.37239269361868

