42
CSD_code = NUDTIP | q = 0 | S = 0 | Stoichiometry = C14H16BMoN7O2S | MND = 7
Mo        0.70217821795514    4.97002330179540    3.49771501416353
S         0.02779043448113    6.60179058418749    1.58799444234026
O         3.69882407346359    5.02088304217487    4.21558664801982
O         1.24964820634498    7.34303127513040    5.38348675406635
N         2.52824130447288    6.03581083193359    0.98282706959199
C         2.60717826710190    4.90418388296435    3.85828613332241
C         0.99137286987774    6.46963253268303    4.67872160182360
C         1.50467661490626    5.86190868038349    1.79197399073665
C         2.55388382066516    7.03185973041211   -0.06953599805745
H         3.40412835384885    7.70081121100019    0.07728780001518
H         1.63117192256316    7.60802969052821   -0.04219092640290
H         2.64820369436534    6.54974907449536   -1.04557678809647
C         3.75626895503809    5.28326764549785    1.11287370833685
H         4.12953509751928    5.03651306859239    0.11722084974414
H         3.57534893737369    4.36162277856577    1.66350068567979
H         4.51784081449085    5.86587726510683    1.63772946436584
B        -1.33107087320751    2.42631465210673    3.93406172227734
H        -2.05769890398403    1.50845392690851    4.09892471858852
N         0.63351552866019    3.50023426309545    5.03791127983273
N        -0.24073957705027    2.49276705618325    5.01329319492160
C        -0.04221773139341    1.68855575658705    6.06514496540338
H        -0.65499837751801    0.82535795641022    6.22948682710503
C         1.01240887724545    2.19192043663982    6.79937835209896
H         1.43353123367364    1.79411494434963    7.69921556804185
C         1.40120983044024    3.33738368888609    6.10985140700982
H         2.17974752397317    4.03877467147642    6.34985507380074
N        -1.38875673850434    4.90359038977730    3.87572699073185
N        -2.06829418058178    3.76638412632436    4.01068964408267
C        -3.35978059738214    4.02947529033430    4.25003247254702
H        -4.07231883789071    3.24172003237302    4.38976803430265
C        -3.52041499275348    5.39985015290152    4.27123443803226
H        -4.42266801780165    5.95202602759840    4.43419081422949
C        -2.24325516168928    5.90352907214659    4.03504448492253
H        -1.91945933660076    6.92650547861421    3.96593638748700
N         0.24116350787417    3.29976213078015    2.20550011347785
N        -0.63477049187227    2.36469729577297    2.57575817159602
C        -0.80239362475123    1.46976654881528    1.58965169540839
H        -1.47133795845352    0.64047101731145    1.69844846355580
C         0.00152657456915    1.84124178985987    0.53472666409052
H         0.11348195931478    1.35235280790965   -0.41087439604547
C         0.63615384421105    3.00180444570297    0.97575812602461
H         1.34694493700820    3.61225144568233    0.45078433682538

