65
CSD_code = NUFDEZ | q = 0 | S = 0 | Stoichiometry = C16H18N16O14Zn | MND = 6
Zn        3.21247865581671    4.41092983854562   -0.00037013125419
O         4.13891256047079    4.65981332495279    1.74719214747300
O         2.56347731656406    5.49283806559160    3.08703614446455
O         1.44683248503204    5.40820556440232    0.76028195949979
H         0.77552258988179    4.72054926931345    0.85290050321380
H         1.76416400615840    5.58879893865386    1.69696944145575
O         6.21850078580413    0.62252801273892    3.21909062202944
N         3.07828243939300    0.18853244023358    3.29449519525813
H         2.45922416888480    0.19186395372979    4.10116844054506
H         3.04839359950451   -0.73141289337094    2.85517808208941
N         1.49676926362967    1.84728175336374    2.54516442869340
O         6.66824515710917    0.29856953597576    5.29364710983962
O         3.94434684024936    2.71018119497607    8.48700476684790
C         4.16680153788450    4.03440831382296    4.01693031369980
N         2.56382819705007    2.66226939119648    0.87451039256662
N         2.64627342842482    1.16612807807327    2.42072817777969
N         6.15483432465693    0.91936915018635    4.39683215713863
N         1.47418808033996    2.71977115042230    1.64020252188159
O         3.13942616889688    4.62273341524846    7.92792687032663
N         3.71190783668290    3.58735478589685    7.68752187817074
C         3.32582303759786    1.68214458927052    1.35871371073892
N         4.46867142226392    1.20078134887447    0.88039645030077
H         4.90606832866645    1.78851686383017    0.17559816776707
H         5.07589270976415    0.70181087210603    1.51876327373951
C         5.38009744853871    2.08915419604396    4.73363549654039
C         3.72622991881957    4.23350334073932    5.31843557188973
H         3.04673905018655    5.04391404989950    5.53947719671264
C         5.02097594351501    2.97960335590627    3.73064283972365
H         5.38907902379458    2.86162555341093    2.72280292254962
C         4.96435976864433    2.27950610435628    6.04363547614404
H         5.25158836521386    1.59081317235584    6.82530580101585
C         4.15497445906412    3.37184203504505    6.32028588647605
C         3.57934005310034    4.83043260312091    2.85717649715490
O         2.28620155065307    4.16199331058601   -1.74801391352714
O         3.86222848347203    3.33015999275039   -3.08788132064607
O         4.97819930459521    3.41368268631963   -0.76073418006187
H         5.64958288134978    4.10132021160393   -0.85290701377896
H         4.66120025261259    3.23340895616748   -1.69757107514549
O         0.20366760161738    8.19861848547300   -3.21739247197950
N         3.34538082877712    8.63301032360880   -3.29544396125209
H         3.96356077758588    8.62899791385830   -4.10279731308774
H         3.37638806357628    9.55311379798163   -2.85651584618220
N         4.92735882935807    6.97449906984858   -2.54639569480796
O        -0.24565458929730    8.52361746018921   -5.29189643089311
O         2.48737854985822    6.12149402514776   -8.48466560536427
C         2.25934202509207    4.78951066402680   -4.01718493308222
N         3.86092665767470    6.15968211825974   -0.87525758673295
N         3.77775932394991    7.65548939196795   -2.42176523526601
N         0.26816547644857    7.90278360533659   -4.39534129536105
N         4.95032047921377    6.10216610635752   -1.64130262632057
O         3.29285585082901    4.20851680547907   -7.92780926589306
N         2.72046868010120    5.24359932605329   -7.68611500811989
C         3.09861732520953    7.13958334854268   -1.35942855672505
N         1.95589774284219    7.62086133536203   -0.88077811605062
H         1.51876484983189    7.03303873852337   -0.17587332494897
H         1.34829730552245    8.11959401205583   -1.51898292271405
C         1.04476660376774    6.73439634707293   -4.73271461786976
C         2.70209843495426    4.59296686229044   -5.31833376731590
H         3.38297580703387    3.78376475155215   -5.53954431151208
C         1.40352632333091    5.84290000409527   -3.73051577628131
H         1.03387339434114    5.95893380318638   -2.72300989526616
C         1.46273108268440    6.54660256892097   -6.04237465799528
H         1.17591085124568    7.23625329255641   -6.82335371553750
C         2.27406533217936    5.45581764466412   -6.31945161389704
C         2.84619494798629    3.99226167122610   -2.85792825886901

