57
CSD_code = NUFDAV | q = 0 | S = 0 | Stoichiometry = C16H16N10NiO14 | MND = 6
Ni        2.73337202928290    3.75449734665624    7.15920134665401
O         2.41114194775119    5.80713911248240    7.73348446062397
O         3.88440062346107    3.48388267049414    8.55868651113716
O         2.73791584408371    3.15668348242711   10.46201223333075
O         5.45413102277165    2.79507957579338   14.54268259102291
O         7.56337055006321    2.41155137813960   14.41000316369682
O         9.73563255850154    2.48851170313319   10.12392573700602
O         8.53762011568864    2.58362453928323    8.34347089880554
C         1.41938949912287    6.02723561095186    8.42461605879148
C         3.76301255032541    3.23861482829419    9.78863961905344
C         5.10461849375195    3.02274720663070   10.48269473095269
C         5.17385602941971    2.92791505013662   11.86563740233924
H         4.27227295697517    3.00421241415034   12.45631304913510
C         6.40665002375164    2.73156227909546   12.47585095389187
C         7.57411168276203    2.61869782688002   11.73506563664418
H         8.52713962607892    2.46463304873553   12.22080425923955
C         7.48072332077366    2.70669233929067   10.35328872677703
C         6.26084165690565    2.91008887299504    9.72338070003409
H         6.20266984221196    2.98185227491220    8.64765251566412
N         0.86193729086714    3.71975754413212    8.54200648179881
N         0.52657303478956    5.06299297096695    8.78733241721418
N         1.13964336301635    7.27765839407046    8.87088448373126
N         6.48000324712043    2.63872624116955   13.92331198615646
N         8.67820284812450    2.58403007980409    9.54711271386082
H         1.31515707071080    3.28861950274514    9.37055096301651
H         0.04762184152319    3.19799710479606    8.23108972950330
H        -0.10212432956810    5.25669215816775    9.56067190636645
H         0.24941768257934    7.50485284134232    9.27625284445918
H         1.69607009174607    8.02867144262744    8.50054866025993
O         3.04805193104171    1.69845890165106    6.59047996476350
O         1.58294319564411    4.02611540772113    5.75900840745238
O         2.73160750379526    4.34518278625792    3.85562560882109
O         0.02229900147624    4.71275405793969   -0.22769989274317
O        -2.08657463129601    5.09947903446204   -0.09839338658235
O        -4.26410747669338    5.03651316061411    4.18509184114363
O        -3.06874340204280    4.94032548206327    5.96725620577283
C         4.03911774971111    1.47338416801765    5.90002533577747
C         1.70578940430387    4.26826102469394    4.52860528592244
C         0.36559422958951    4.48722108729641    3.83291315233936
C         0.29838827895532    4.58054712816956    2.44975488045056
H         1.20046924736877    4.50058556268981    1.86031430034013
C        -0.93299328494496    4.78008131193230    1.83774195011715
C        -2.10096688708723    4.89769897090918    2.57697219858185
H        -3.05288894047193    5.05435776498969    2.08989038878995
C        -2.00958486085544    4.81111723654650    3.95898371675540
C        -0.79116415014217    4.60448354824118    4.59069424674265
H        -0.73454582162664    4.53379881821463    5.66658584312549
N         4.60417257597076    3.77881538402009    5.77656737147164
N         4.93521051575955    2.43375836631060    5.53491583585344
N         4.31475702165767    0.22088913596268    5.45695732363568
N        -1.00421464579903    4.87130443627755    0.39006426913487
N        -3.20772426844417    4.93857620385454    4.76344651863719
H         4.15211133500224    4.20909533866230    4.94678284879707
H         5.42048507331585    4.29873357187321    6.08540878516271
H         5.56237770146879    2.23613810763644    4.76132356091833
H         5.20426354397104   -0.01048279662342    5.05236248924450
H         3.75579754577573   -0.52721304069717    5.82934816840298

