62
CSD_code = NUFFOJ | q = 0 | S = 0 | Stoichiometry = C19H32Cl2N4O2RuS2 | MND = 6
Ru        7.96008602084935   10.31111388256478    8.74649099745096
Cl        8.56490255326770    8.56835469034730   10.21179515323188
Cl        5.64635721396781    9.90521422549669    9.05333714490495
S        10.22247714782220   10.56691649107985    8.58124107924167
S         7.76191885450883    8.83068553000476    7.05997974445827
O        10.70802155392295   11.67476168886054    7.76070779187403
O         8.90776303122702    8.67661167385843    6.16564725200426
N         7.56568629006241   11.85409153403269    7.43365248206380
N         7.90095241839808   11.56173523801666   10.37698616693582
N         7.19977530849355   12.20731268221298   12.37904858490432
N         7.01474401601877   13.72725676368437    6.43913741641592
C        11.02565483948353   10.77992982253388   10.21091572800603
C        11.17014953644242    9.09681330457853    8.09645780028380
C         7.27112060292300    7.16283761196711    7.58260953755677
C         6.33883799713129    9.13449550505825    5.95785534003917
C         8.28350919633897   11.95571851519497    6.27939464225556
C         7.95275259147500   13.11776408978308    5.65462574077349
C         6.37731568999180   14.98682782015547    6.18446232708049
C         5.79526640498282   13.24141509771821    8.55342233975494
C         6.79805530035090   12.92578705928813    7.50896672825337
C         8.14409544399457   14.55452471644409   12.31019008240344
C         7.87462090091683   13.27608845032790   11.84253724115745
C         8.32173274164839   12.85481369258955   10.57415269382219
C         9.06348108489384   13.71339184931280    9.76856478510921
C         9.33191233554235   14.98688987226382   10.23318198920632
C         8.86847478058222   15.40995794651749   11.49953192494919
C         7.24789671903159   11.21757011777922   11.46156795471108
C         6.56211004664396   12.15642869450136   13.66264265458254
C         9.17368402347596   16.79703874183335   11.97802559075583
C        10.13261685429708   15.92186528536877    9.37797347883511
H         5.79619677923742   12.93082897057092   13.73560995673139
H         6.09641205478470   11.18210975137438   13.78954040498688
H         7.29467429696124   12.30965530459939   14.45753710416957
H         6.79903232377632   10.25102968673577   11.61041966180365
H         9.43780126481784   13.37498811313165    8.81378535734068
H         7.80156056735728   14.87561249914299   13.28231810261495
H         8.73796683676141   16.97106076553447   12.95828578637810
H        10.24987063805588   16.95064539010651   12.04622227030161
H         8.77829194024022   17.53978398850166   11.28633071671995
H        10.42697768923134   15.42709539140428    8.45665050822995
H         9.55668763669320   16.81340239693905    9.13020758372990
H        11.03250017276105   16.24532428774618    9.89927037437419
H         5.59372454603982   12.33992558214474    9.12963188333073
H         6.15610343852660   14.02690530614295    9.21787325193792
H         4.86627301151923   13.57361919749581    8.09304163842861
H         6.83265369699265   15.44707448481915    5.30997147455732
H         5.30993936022289   14.84908563494163    5.99631924643274
H         6.49748730785215   15.65136139047742    7.04165958332975
H         8.98494377230652   11.20177262545719    5.97957219325469
H         8.30226594589115   13.55046480649654    4.74047124831072
H        10.98433110108703    8.33478683685848    8.84471187975922
H        10.80460787380225    8.77481491468296    7.12639986386373
H        12.21676250212538    9.37158153192234    8.04385854556472
H        10.66414573877043    9.98412629561414   10.85310484992619
H        12.09909250298566   10.72739698851110   10.07343542541483
H        10.74573956936579   11.75173350982355   10.60298854114386
H         6.33175895042877    7.25998479058864    8.11676228016551
H         7.18022400891498    6.53491458720685    6.70435241041203
H         8.03792067271293    6.78534005632721    8.25171197451489
H         5.44915001941853    9.21198828874675    6.57337447010791
H         6.52289314408328   10.06641674669626    5.43331953297669
H         6.27573913758594    8.31355728840842    5.25345948605623

