32
CSD_code = NUFGIF | q = 0 | S = 0 | Stoichiometry = C13H13Cl2NOPdS | MND = 4
Pd        0.34876749430323    0.13729478462535    7.70384494588296
S        -1.02948456914475    1.06293212417480    9.36431070595573
Cl        1.74244042668723   -0.73310637817552    6.19509366519677
Cl        0.34647607504282   -1.80059532906606    8.77679697499506
N         0.38063794486058    2.05165704553111    6.88203418915624
C         1.22208208495678    2.37981750701105    5.89655500465414
H         1.73595950057912    1.54703859594791    5.42823463504178
C        -0.29206344350494    3.03576129922081    7.49798309705419
C        -0.10993145856511    4.36771393763813    7.16407667612782
H        -0.68044192709266    5.12438584331996    7.68048123087228
C        -1.31083880203458    2.67519902349382    8.54195483014467
H        -2.29075598549020    2.56777439695606    8.06734313283449
H        -1.38163003483078    3.44608508312331    9.31079277252659
C         1.43789203151520    3.68145588326912    5.49750994033024
H         2.14105944838260    3.88360780266091    4.70636973542657
C         0.41534580324011    1.46994710661826   10.39830382523995
H         0.72268855975818    0.53184000653438   10.85909264372249
H         0.11987749428743    2.18321262392667   11.16428590305079
H         1.23096817143611    1.86700639317586    9.78798506836455
C         0.77141486394221    4.72613464918540    6.14319169155810
C         0.97930501407767    6.12473892063134    5.76850607098408
C         1.18220496445181    6.48131854842117    4.43373528781525
H         1.16064994773969    5.72098228298259    3.66822486120733
O         1.58015024165306   10.07316899815300    4.64918359258196
H         1.56497881661584   10.66860718214948    5.40884608331249
C         0.98139266663915    7.13121550563560    6.73253096652774
H         0.85260700978979    6.87934049841581    7.77466887629216
C         1.18674025795281    8.44939302683635    6.37940599205524
H         1.19914649428633    9.21790259560352    7.14095310081334
C         1.38128518902944    8.79504930465180    5.04557008625634
C         1.37282282741615    7.79634113375027    4.07305196212521
H         1.51845289201566    8.07797960359831    3.04278245189598

