57
CSD_code = NUFJAB | q = 0 | S = 0 | Stoichiometry = C16H16N10O14Zn | MND = 6
Zn        2.76224816590272    3.77985238317302    7.18887360778361
O         2.54375038892282    5.78759697602977    7.63634839331634
O         4.08850514890999    3.51546485851540    8.64246594404177
O         2.91588588103342    3.11650908379803   10.50197484176980
O         5.51130977865464    2.78670800777950   14.66680530072727
O         7.62120810235954    2.39091731676205   14.59467842221768
O         9.92107223972653    2.50973804066716   10.37463605183281
O         8.76976266761865    2.53265498485843    8.56109870881834
C         1.54741621934232    5.98015588729553    8.32866374535523
C         3.96296496846814    3.23169636884860    9.85911529910851
C         5.27770986293491    3.01063717284944   10.59774941770774
C         5.30740189060599    2.91156612349685   11.98189712973912
H         4.38896825143356    2.98349810589356   12.54645211982152
C         6.52224323054345    2.71842543948272   12.62820133288619
C         7.71085900686111    2.60784174198521   11.92140255122507
H         8.64964977006810    2.45460479075307   12.43436061393582
C         7.65769104464694    2.69629167520285   10.53769369961724
C         6.45631524534795    2.90205230564350    9.87364000113593
H         6.42791534813002    2.98125916870571    8.79731878595153
N         1.15854234172840    3.65287510187293    8.55573774184184
N         0.73604187188054    4.97799919870958    8.75464087738847
N         1.18901498057268    7.22921534714940    8.71105273051881
N         6.55372366887391    2.62486508030667   14.07659825238124
N         8.87791562321087    2.57116375328262    9.76756258376366
H         1.62892568748867    3.27719827273215    9.41465455106446
H         0.37293045698687    3.06822962734292    8.28130955219713
H         0.09977366357332    5.15682699707758    9.52398172825753
H         0.29253392665760    7.41893522822380    9.12209139817728
H         1.68965048729070    7.99488953580439    8.29348103515458
O         2.98100162428715    1.77228475369838    6.74095052114854
O         1.43574771460299    4.04474588649357    5.73567538343604
O         2.60730802319595    4.44585868769576    3.87599828190937
O         0.00837674788984    4.78590789415712   -0.28617838436279
O        -2.10199165795728    5.17868653389045   -0.21163045570903
O        -4.39776878319843    5.05364791967242    4.01048367980659
O        -3.24462005435434    5.02957379914288    5.82284798984038
C         3.97694611413083    1.58007869500174    6.04797521183768
C         1.56060569621380    4.33072175858247    4.51949239150559
C         0.24536427790933    4.55324082702780    3.78218056743036
C         0.21441464183007    4.65449334190431    2.39821749905068
H         1.13227403684558    4.58300706518697    1.83268491081298
C        -1.00092359931358    4.84943385006409    1.75338544190613
C        -2.18887685235938    4.95918379261139    2.46143617618424
H        -3.12807392579218    5.11362096570854    1.94958666283212
C        -2.13446922458777    4.86838535672589    3.84494712987549
C        -0.93254830550041    4.66111505302102    4.50753533620208
H        -0.90312771690131    4.58035297646458    5.58370603844058
N         4.36540737348005    3.90750467476968    5.82136947608918
N         4.78785551804200    2.58248585043659    5.62171044020136
N         4.33528387289139    0.33118329982430    5.66495639780667
N        -1.03370159593555    4.94561700132500    0.30518571910026
N        -3.35397802120160    4.99235421018461    4.61640910052619
H         3.89458170847680    4.28355885127495    4.96285047687965
H         5.15114115018605    4.49210270518647    6.09558146081041
H         5.42376445390356    2.40391160833927    4.85201823079228
H         5.23177210822486    0.14170250405035    5.25379766121330
H         3.83510475521525   -0.43462843667245    6.08284023668087

