42
CSD_code = NUFNIN | q = 1 | S = 0 | Stoichiometry = C20H14ClN4O2Ru(1+) | MND = 6
Ru        6.03866480018155    3.03370273904309   12.20216414375251
Cl        4.80101710680544    1.97415174628893   13.91276108758896
O         7.12528932134611    4.69512342147190   14.45527289747069
O         3.64512104841950    4.85204124296673   12.08973521240113
N         7.61454031379928    1.71646893276145   12.27379247218427
N         7.24654403359891    3.73849661491665   10.73124222848943
N         5.81515060046193    5.46999554706600   10.37028081399803
N         5.11644706373133    1.73816439350272   10.83018397815874
C         7.73139823365259    0.72066235730011   13.14465961878703
C         8.79698355277243   -0.16573135243329   13.12552643270495
C         9.77915157521139   -0.00856161929450   12.15891056113346
C         9.66830312990574    1.03648345226529   11.25720426673708
C         8.57391228019278    1.89596075705685   11.33947451517744
C         8.37327280211047    3.06837310066761   10.48479500875794
C         9.29148674008865    3.51665976564366    9.51289093579815
C         9.04419357694432    4.67046975568227    8.81808059843640
C         7.86316832106179    5.39666742175099    9.08033674943851
C         6.97515094877901    4.87477835514629   10.05655250249856
C         7.49351284944403    6.60750808751950    8.45721477921447
C         6.31350288481083    7.20872107329920    8.81248737307951
C         5.49715928314240    6.59150969914739    9.77779912574338
C         4.59121476735568    4.22933269376415   12.04924761447916
C         6.76401227175500    4.09334352380069   13.56508698443873
C         4.88731224942470    0.46365127344744   11.15491369896717
C         4.20991408390602   -0.41354457805138   10.32415119768110
C         3.74084069584851    0.03957255713904    9.10246706962057
C         3.97547373774219    1.36411049793064    8.76382571975463
C         4.66069756875812    2.17401269665060    9.65093642791706
H         6.94159404516935    0.64348590972654   13.88528379695335
H         8.85175640663014   -0.95721856708760   13.85471227500569
H        10.62072996335518   -0.68149772586727   12.11112967053952
H        10.42343500004419    1.18146748147665   10.50259315593854
H        10.19292188641803    2.95700637190232    9.32788617332630
H         9.74144638123495    5.03655948655881    8.08047815867844
H         8.14624937256166    7.04015281585623    7.71401674094980
H         6.00143161514284    8.13683075553821    8.36221518912013
H         4.55259070027802    7.02934719917186   10.07024785329704
H         5.22960609359450    0.13774159176338   12.12955819188623
H         4.04709828074752   -1.43051116892158   10.64236253562848
H         3.20102902795500   -0.61492493236656    8.43634044976611
H         3.62356677050694    1.77086644315911    7.82946445969681
H         4.84020861511620    3.21567018264235    9.41001733480684

