78
CSD_code = NUFPEJ | q = 0 | S = 0 | Stoichiometry = C30H43CuNPSi2 | MND = 2
Cu       -0.57294341397269    2.73704793512562    5.59215117157742
P         1.50288382283007    2.61951454236768    4.85836096417022
Si       -3.51736099665561    2.34514155535280    6.81340766957447
Si       -0.51951092170511    3.85237738502332    9.21826362702298
N        -2.13547990098069    3.29832727205495    6.47916885328800
C        -1.96357896377905    4.63214734109813    6.83643334342270
C        -1.32294433796354    4.99020110456220    7.96537504974903
H        -1.22438588805511    6.04660638570355    8.17351321911533
C        -2.52390628060886    5.68286159607837    5.86282989258892
C        -2.43658524471247    5.16769616593783    4.42248047701684
H        -1.39209422507316    5.04517969247944    4.13239415857644
H        -2.90401304516054    5.87598636457899    3.74001979510239
H        -2.93789123369111    4.20922505528408    4.33110425024400
C        -1.76905752338677    7.01582114958435    5.92853220483305
H        -1.93805985563293    7.52460122702777    6.87365378861440
H        -2.12151169175590    7.67182716251701    5.13364326073352
H        -0.69975964435374    6.86342115913282    5.79672802772493
C        -3.99283492880757    5.92843737455615    6.22298540490785
H        -4.07580547764601    6.27648822155669    7.25005773288209
H        -4.56107400617842    5.00926382906699    6.12630265235657
H        -4.42515568040443    6.68022289310597    5.56372705079306
C        -4.59449025114302    3.05541291517183    8.22213387071438
H        -4.08815783814829    3.88863107844647    8.69704870534389
H        -4.79543554393244    2.31187172385123    8.98705867859993
H        -5.55276129531860    3.41327665050613    7.85816059809910
C        -2.91729210401767    0.58717368725914    7.27705257118049
H        -2.27764817920557    0.17610942589974    6.50070395175095
H        -3.75542227112228   -0.09107301821006    7.40063091299494
H        -2.35044070989419    0.58370020107480    8.20250435262949
C        -4.65982464109192    2.07708533857164    5.28602262620871
H        -5.14131515480983    2.99262501059768    4.95334746023374
H        -5.44621710692778    1.36256677016057    5.51138543338435
H        -4.09695738949946    1.68167276620207    4.44424157280984
C        -1.71568503924995    3.04023405118748   10.46675024649950
H        -1.17479567315142    2.50873887407148   11.24540933100220
H        -2.37030552438359    2.33215668207481    9.97140687803478
H        -2.34258259203867    3.78231817546982   10.95208378860197
C         0.70249813529287    4.94569133082458   10.21052017392966
H         1.20283004042859    4.37318888375260   10.98503085330313
H         0.18506579167681    5.76585622471609   10.69744875670667
H         1.47075426045780    5.37441819715323    9.57356321728517
C         0.54353507043600    2.44626710349297    8.46431957686820
H         0.98453919410232    1.81969220193994    9.23494129195746
H         1.35934335771521    2.83753808518378    7.85900085596937
H        -0.06470012225528    1.80698674241677    7.83016916853424
C         1.84143611540362    2.37333272056862    3.08003227352807
C         2.93289676804937    1.66634824906364    2.58802243664126
H         3.62814477256570    1.19756773296801    3.27065800484492
C         3.12139211679844    1.55678761162328    1.22140504107237
H         3.96937112171424    1.00650712665883    0.84063667692092
C         2.22892532811890    2.14880453466252    0.34291057703270
H         2.38203307265337    2.05942869758205   -0.72219849468071
C         1.13672644698935    2.84970989130687    0.82964768466755
H         0.43724873029314    3.30617740176262    0.14539698531718
C         0.94098604727694    2.95754824897027    2.19340167926991
H         0.08546186277402    3.49028443872062    2.58983595972620
C         2.57940052233766    1.37219920724913    5.63379939128726
C         3.66941111718072    1.68291291368085    6.43688237635005
H         3.95024860185520    2.71456818987706    6.59517398718842
C         4.39200474017046    0.66620070022579    7.03744020751848
H         5.24010876000743    0.90939243428780    7.66038845295817
C         4.02893305934812   -0.65637317392827    6.84743954243952
H         4.59511462807559   -1.44468690912935    7.32057786151686
C         2.93295602754595   -0.96948682752564    6.05765521992438
H         2.64353627368121   -2.00031680572815    5.91668323951262
C         2.20609455030697    0.04076317520822    5.45925522036692
H         1.34122629595779   -0.18798529981377    4.84889409528527
C         2.35844029400200    4.19752867570090    5.17062247767517
C         3.57827780657075    4.50952809107544    4.57645274188837
H         4.04276179717740    3.80847772220420    3.89676932258840
C         4.18972679252710    5.71742196451235    4.85725840444713
H         5.13692110729276    5.95908913760476    4.39764122724110
C         3.59051688377519    6.61701716368027    5.72580302029509
H         4.07355888060853    7.55835334985354    5.94187232810021
C         2.37316985086255    6.31128406621309    6.31154240926651
H         1.90235491634101    7.01128253974993    6.98528608991747
C         1.75280097891980    5.10591614680678    6.03317344665059
H         0.79894875655876    4.86508237034389    6.48647264637986

