89
CSD_code = NUFREL | q = 0 | S = 0 | Stoichiometry = C48H38P2Pt | MND = 4
Pt        5.53664850415557    5.19785332495949    9.47628578663467
P         7.54705714438813    5.92393629933693    8.49686973465636
P         5.73703190762829    6.72425044707621   11.27942478339620
C         4.98678969392969    4.02427481648863    7.91617141043065
C         4.01181976005306    4.13271791921671   10.33347839554935
C         4.11439622006337    2.96137862897495    8.22472197321285
C         3.60433561742998    2.99670357785704    9.59542880511161
C         3.71812467322847    2.06792957094602    7.23797210591559
C         2.71240728357945    2.07839335615312   10.13401340647635
C         4.14595127623756    2.23697269359045    5.93221061119062
C         2.18565170132542    2.27289919062945   11.39868177160520
C         4.93643588428129    3.32177556779479    5.60305879276512
C         2.53591767103044    3.40052724466412   12.11610601097739
C         5.35081527994129    4.20600444149578    6.59064423027445
C         3.44071203832751    4.31142536429704   11.58663495721961
C         8.34783883086443    5.15264813949245    7.04834319350436
C         8.47644882369993    3.76653900696168    7.09561115951210
C         9.06322641660222    3.08715409686221    6.04768640956813
C         9.52603051743835    3.78739834192191    4.94360641688832
C         9.39815721511323    5.16462234621409    4.89301834699609
C         8.80856370800764    5.85137277260899    5.94118554714359
C         8.90001498346278    5.58137800954107    9.67195085594593
C        10.23095467423926    5.93543168800630    9.48229157688568
C        11.17406771931882    5.60157670067617   10.43750694395540
C        10.80668891496674    4.88756325783531   11.56734958720568
C         9.49516189505465    4.47180010969214   11.72768801676656
C         8.55050006725687    4.81393852517789   10.77826728252569
C         7.55363902933046    7.68862053232893    8.04254129773596
C         8.59959151740014    8.59639658208221    8.13667556337517
C         8.42235755743161    9.89693434421581    7.69727522858954
C         7.20912364442303   10.30240902302265    7.16735004634806
C         6.15375951210591    9.40777476117980    7.09176506740687
C         6.32701848011352    8.11035763266963    7.53107706143530
C         6.78461525580626    8.22183430828312   11.16391644843307
C         8.11651485365891    8.15313693075157   11.56695002931430
C         8.93589311756534    9.26067046013544   11.46731656900367
C         8.43808914362534   10.45075287373788   10.96201652181901
C         7.12065177737567   10.52119742620501   10.54261651128406
C         6.29890184759255    9.41280367826422   10.63459529681869
C         6.12318532314788    6.23258375159148   12.99785210230755
C         6.42504978118923    7.15925187223479   13.99238631206126
C         6.70899638135396    6.73133357975391   15.27640867859818
C         6.70364511003081    5.37954465924287   15.58061940972375
C         6.41654313334221    4.45221049730472   14.59336387479704
C         6.13004772070755    4.87654058194749   13.30876252777558
C         4.09341140015867    7.51522372681667   11.37534861453197
C         3.56720817931207    8.12562819995911   12.50633844991088
C         2.31362455446791    8.70947896447461   12.45174621804057
C         1.58444329822026    8.69429783664172   11.27412258517439
C         2.10369788558363    8.08183708665433   10.14465184547424
C         3.35172276163246    7.49180754946665   10.19712850997077
H         3.06153906432371    1.24395839759716    7.47936153460342
H         2.42267237247681    1.20561751139415    9.56592094606228
H         3.84037342752289    1.53595388568579    5.16771334004656
H         1.49293284050831    1.55473985196715   11.81536336572358
H         5.24160772952644    3.48340525641339    4.57794837488218
H         2.10989333859615    3.57850678040462   13.09452873904012
H         5.96493775793528    5.05057046601903    6.29340572235294
H         3.67687773582818    5.18601554544375   12.18486444202716
H         8.09053642604424    3.23143483492653    7.95472844696414
H         9.15477480112600    2.01171187306484    6.08438472968233
H         9.98079689432580    3.25751015147186    4.11956379643350
H         9.75447890671072    5.70974285112155    4.03063771283012
H         8.69966831667990    6.92630423217176    5.89094203279781
H        10.53624519793615    6.44601302711223    8.58031230052147
H        12.20567586686780    5.89039424916021   10.29603558156377
H        11.54887841832175    4.63689189923088   12.31103109636219
H         9.20962279738039    3.88657681655385   12.58977722982850
H         7.52017802534612    4.47041013372160   10.87034266274849
H         9.54562514933990    8.30414285377522    8.56417992814832
H         9.24068941509988   10.59884918229956    7.76852600637660
H         7.08393737002544   11.31790569189579    6.82122188539614
H         5.20071792171135    9.72352442121551    6.69305093937124
H         5.50803472118221    7.39722066043436    7.48556147555573
H         8.50516598838754    7.23099857546644   11.97749632513032
H         9.96480136149266    9.19574038685402   11.79133665315834
H         9.07568762417965   11.31990116079305   10.89462809029463
H         6.72831038008894   11.44541199545951   10.14399150082067
H         5.27242845705466    9.47692512486764   10.30176335323316
H         6.45307391176581    8.21532762040679   13.76088690345458
H         6.93767795750765    7.45700495210547   16.04383777568493
H         6.92725421233247    5.05146857880925   16.58515289030096
H         6.41543442640707    3.39675401318521   14.82326929322093
H         5.89621309328622    4.15165505215898   12.53975349081622
H         4.12313025668295    8.12953679161330   13.43290653722397
H         1.90201348258062    9.17575683281359   13.33531780287365
H         0.60633982441862    9.15123978914149   11.24029030601701
H         1.53109336040108    8.05664995904382    9.22926822041677
H         3.75970148152148    6.97143629677045    9.32716568581319

