125
CSD_code = NUFVOB | q = 1 | S = 0 | Stoichiometry = C65H55ClOsP3(1+) | MND = 6
Os       -3.17923741909065   14.42157180239354   25.98092626170532
Cl       -3.26822921042061   16.73565032778195   26.56482865370462
P        -0.85263492979015   14.76420259598319   25.77874136328839
P        -5.48527096567297   14.22370355242388   26.43230906940240
P        -2.36867728851315   10.83568007491801   28.78011744012870
C        -6.08687818730190   14.86933709430336   28.03084978410163
C        -3.49065519730535   14.69382385514890   23.97813924132664
C        -2.83418857968364   13.27328913001653   27.49566555578316
C        -7.76145362400535   14.43691657652689   24.73132918928368
H        -7.92289750097010   13.37562343582181   24.85536016474468
C        -3.23672120575711   12.35701230474310   23.81581423166689
H        -3.17846017336315   11.40615505206426   23.30026646941023
C        -0.31559575498800   15.67560874260624   24.29531887538667
C        -3.43402645966422   13.55912782974510   23.16227547178213
H        -3.48782547415046   13.62171337220800   22.08382885378562
C        -2.71669203497584   11.91361298536333   27.40845495445238
C        -5.22545188018591   15.41603869058856   28.97238155286751
H        -4.16758024401637   15.47790082561919   28.76016755182077
C        -6.49913902966704   16.43582513774453   25.18626067173964
H        -5.66035607150312   16.92089175225444   25.66670620161516
C         1.06375902078462   12.98443062472097   26.83527431083346
H         1.25668999200792   13.73235836407886   27.58901343454218
C        -0.05384602060685   12.26555918133149   24.83880395218675
H        -0.75978872061699   12.45320255342707   24.04283037912976
C        -4.69605842958592   10.22858166000458   32.06316850871367
H        -4.87604930366894    9.44320554328719   32.78125233138562
C        -0.79632257212205   11.26858003505377   29.56288351785856
C        -7.45531638473541   14.82199122667824   28.29458919091266
H        -8.12869284805044   14.40286347449551   27.55916144327965
C        -7.08221156099461   15.85628523850165   30.42684029969449
H        -7.47137935398918   16.24591823817159   31.35562593884580
C         0.34832947262014   15.09833715688702   23.21998113044678
H         0.63207017931020   14.05686586212017   23.24713945977307
C        -5.59621820078490   15.31875193304938   21.81903838256885
H        -5.71055317256883   14.41774083003417   22.41637973541750
H        -5.24809903661159   15.03789292241792   20.82395114303983
H        -6.57338304212539   15.78522783537808   21.70129911813683
C        -3.48353768179587    8.36959989252941   28.17405058314766
H        -4.39748462432015    8.76852463087994   28.59101765606669
C        -6.30835424566551   11.83567464289569   27.68163244444750
H        -6.30664810105119   12.38725626439234   28.60999658768248
C        -6.03607637664902   12.48565623994708   26.48398259396032
C        -2.32591321572798    9.14282384925747   28.17787839232289
C        -0.05978964384105   15.75793386305073   27.08711962591398
C        -7.94685872850343   15.31055525809788   29.48935188805493
H        -9.00732405261241   15.27381159960490   29.68873662423470
C         1.19794139895345   16.31102916599586   26.85120047560215
H         1.67736286199508   16.16687944154040   25.89247115205582
C        -5.72344306389481   15.90916213993698   30.16697933326829
H        -5.04976780540261   16.34320617943094   30.89125618862668
C         0.16044028845738   13.24198658647918   25.81014232452772
C        -0.32127314748161   17.79268452533826   23.14936516324426
H        -0.57645282874830   18.84184252796275   23.12554024782233
C        -5.35115045261400   11.44506328125934   32.18551055368082
H        -6.04423387436458   11.60084381374901   32.99784297385996
C         0.62044861574421   11.06056560993010   24.89444401387617
H         0.45073771533588   10.31466533299533   24.13199999001690
C        -0.66702150183778   15.94168637096746   28.32296158368609
H        -1.64972637774110   15.52817096076736   28.50244547254179
C        -5.11376824915175   12.46240069630957   31.27488572063512
H        -5.61775133513601   13.41246758375306   31.37365451372415
C        -3.58969569437181   11.03420279583859   30.09761681586109
C        -3.80692306093248   10.01889994661063   31.02519174981920
H        -3.28636028217526    9.07585994014472   30.93088207622737
C        -6.59576783252422   10.48151571230264   27.69088313547150
H        -6.81318364260852    9.99090181479875   28.62934918127435
C        -4.22799053669697   12.26143696769356   30.23179469184017
H        -4.03406148823405   13.04365579892966   29.50681706071083
C        -4.64360450985449   16.28698294397148   22.44291121420722
C        -0.64559059900248   17.03074662260648   24.25496217744707
H        -1.14871277312019   17.48188465777016   25.10040835668289
C         1.82852880318513   17.04256084171463   27.83979880704861
H         2.79976864644510   17.47398488867911   27.64951995234326
C        -0.03161365810670   16.67457568971357   29.31013377705922
H        -0.51419401314831   16.82204717626379   30.26528061047721
C        -6.67674128529050   15.06194068718665   25.33586608553914
C        -0.43895486071434   12.61101609097182   29.59624150415469
H        -1.05677806626112   13.33490812694831   29.07901027982301
C         1.50841119428545   10.80696588161741   25.92814398187743
H         2.03247701483033    9.86364570175431   25.97387299870675
C         0.33383518196041   17.21140834652409   22.07511025437220
H         0.58679392802364   17.80597337333612   21.21041727287641
C        -2.85521083703963   11.43675459099403   26.07533966425208
H        -2.76856475227809   10.39089687470798   25.80446934962262
C        -6.35081283116702   10.40747189051521   25.30778955896335
H        -6.37281843627292    9.85287001192182   24.38153304640367
C        -1.15202046332440    8.66308305987367   27.59974275497991
H        -0.27128804292673    9.29123922804577   27.57399522317971
C        -8.65006253149293   15.18246125262066   23.97591182594298
H        -9.49192613190721   14.69416086272969   23.50767145704850
C         0.67176306087867   15.86950780362113   22.11641852103392
H         1.19415368900024   15.41800112928099   21.28599099726051
C        -3.09896302677689   12.47478771112644   25.20530714076471
C        -3.75795468498371   15.98113095839685   23.41223652353120
H        -3.21890657294424   16.81140205872126   23.85575758199421
C        -1.13209898610366    7.39203101430487   27.05631076987135
H        -0.22475381754235    7.01129637181892   26.61294175751395
C        -0.02199313379435   10.31452807106772   30.21604376088584
H        -0.31463810829599    9.27382663674578   30.20567219039248
C         1.73044098384599   11.77279615492985   26.89419527161762
H         2.42555750381907   11.58611473330459   27.69994240380349
C        -4.77486787691640   17.69259474383838   21.95519198025862
H        -4.01380140529653   18.33890943501293   22.38401776873692
H        -5.75702195069871   18.09016567335343   22.21158427325257
H        -4.68925513502195   17.71725623412500   20.86895381629282
C        -2.27643122675688    6.60846013950016   27.07781414307789
H        -2.25490971342995    5.61508068005401   26.65694855574179
C         1.21499381497440   17.22712805882948   29.06939460388528
H         1.70745739423378   17.80613327033399   29.83607369887906
C        -8.47145701411021   16.54808183619828   23.82927245708319
H        -9.17431746998205   17.12370925175303   23.24549941058329
C        -7.39721085884023   17.17484672365262   24.44061818885899
H        -7.26407089618159   18.24218842321972   24.34377187972268
C        -3.45054925563485    7.09927109918689   27.62811435684819
H        -4.34195251910952    6.49089307376812   27.62992503985718
C        -6.61480982478336    9.76435894307175   26.50725839334735
H        -6.84075719025843    8.70857671511451   26.51525599653913
C         0.70710355370996   13.00013047351314   30.26442864065881
H         0.98577900379374   14.04333771265662   30.29002342870726
C        -6.05539092392769   11.75684987083035   25.29596941611287
H        -5.83140025618604   12.25751394555824   24.36395813979741
C         1.12830944141042   10.71184528287592   30.87285602964084
H         1.73990727958773    9.97652687700602   31.37312402981364
C         1.49254126132158   12.04983650493064   30.89730204294858
H         2.38995206055413   12.35116233650361   31.41562198872514

