88
CSD_code = NUFWUI | q = 0 | S = 0 | Stoichiometry = C32H49NO5W | MND = 6
W         4.22304231913801    5.78028580382609   21.26486130963590
O         2.56241664692731    6.10881025014843   21.32142040739483
O         5.28787883781207    7.08939892715316   21.15890939845760
N         6.04456180811081    4.02954162185841   20.89418978863511
C         5.57016758795881    2.81659662180460   20.21450787730425
H         6.33415952036642    2.02205692924838   20.24135274277518
H         5.37488978286129    3.06849630080510   19.16686884266333
C         4.27477571132665    2.29278297727667   20.85834378391139
H         3.83886785026650    1.51833615264385   20.21415724611700
H         4.47991176829720    1.84696674015599   21.83669726123194
O         3.33249820402776    3.32049786198651   21.11025830745009
H         2.92223291966539    3.60848773400224   20.27714191857607
C         6.70360500728050    3.68520078578163   22.17088857871026
H         6.06623381845269    2.97132136781360   22.70505091173532
H         7.67886062752649    3.20746459891169   21.97998388013472
O         4.52513054198404    5.02801114703519   23.00049007143538
C         5.67768443739810    5.54676136421737   23.44051013040799
C         6.86758379533195    4.90301973712312   23.04169468748958
C         8.10334927752937    5.36188093367508   23.45635059729294
H         8.98769985620334    4.84198763819747   23.11571634987809
C         8.20643647735695    6.46152704871777   24.29798918406667
C         7.02519738525731    7.05735583645369   24.72643867800893
H         7.09380521477696    7.89775197335066   25.39174588754159
C         5.75953412954374    6.62976829236466   24.34498038734612
C         9.58363067094245    6.95626354501908   24.71707483395241
C         9.52231422708287    8.19862068348817   25.60950494099309
H         8.99750288918683    7.98905571076473   26.53838038161541
H         9.03026620114823    9.02142661397974   25.09710501617779
H        10.53333233929287    8.51428192000053   25.86026174040633
C        10.30222200288818    5.84446033516249   25.49494959351804
H        10.42774781366471    4.95324621369273   24.88634038316295
H         9.72834800667427    5.57464132012641   26.37881240868218
H        11.28678889484351    6.18279790683617   25.81150526958673
C        10.38818086727395    7.31491001399459   23.45945450617888
H         9.85609296925517    8.06386477773394   22.87737142542224
H        10.54839964305183    6.44463871003655   22.82913880350685
H        11.36085729725700    7.71660230461851   23.73661448913533
C         4.49155471576282    7.30743737053240   24.86018340955211
C         4.78441162866987    8.34712367178377   25.95001594951653
H         5.31790136181924    7.90109027233226   26.78635643166336
H         3.84348254194824    8.74376980841227   26.32546299790974
H         5.36187916924329    9.17956522792583   25.55639395050899
C         3.79354853327379    8.02439982930520   23.69137968290410
H         2.99227583847277    8.65788516248874   24.06885393160759
H         3.35549496593350    7.29788277447224   22.97895000272009
H         4.50700010977585    8.64483222664656   23.14601705512854
C         3.54617854200790    6.25397888933824   25.45693685298060
H         3.24052052203229    5.53979659505402   24.69374364013870
H         2.65456153600158    6.73704453043415   25.85098742906517
H         4.03828596373891    5.71787205135811   26.26679159924933
C         7.02449200145544    4.73608428703106   20.05106628459050
H         7.83799901800243    4.04094317490604   19.77185705990217
H         7.45878050009399    5.52855330924679   20.67707630551174
O         4.22823902139159    5.14382850141395   19.44710314836071
C         5.13198799877648    5.72433525487832   18.64781917074633
C         6.49143661897085    5.41001582744354   18.80308940739656
C         7.41924636069300    5.84048051918298   17.86306314270611
H         8.45318772712031    5.57784951005819   18.02260293353253
C         7.03805368494955    6.59101120485166   16.76492267164998
C         5.70026942587961    6.97303097278604   16.68038334688788
H         5.40863416755844    7.61120266118492   15.86459584448378
C         4.73617400601789    6.57687102014921   17.59071903357501
C         8.01332820052520    7.04602497405712   15.68897657301498
C         9.43356394807650    6.52434518724852   15.92463016810582
H         9.45104216110790    5.43719258581261   15.94909008978452
H         9.84099405368106    6.90955402050857   16.85603510428050
H        10.08046033713455    6.85357200362795   15.11377908020335
C         7.53655045532737    6.52640340628281   14.32528142489637
H         6.55001693106346    6.90817755414843   14.07932996206810
H         7.48862914394357    5.43951898789350   14.33387603735170
H         8.22670355136347    6.83579155415341   13.54298219711000
C         8.06540190206247    8.57993660194568   15.67103153583474
H         8.36109650813637    8.95509038198889   16.64806571474557
H         7.09735744295145    9.00525078673149   15.42296986653725
H         8.78798058702640    8.92331079964677   14.93333136990692
C         3.32026842837170    7.14894899001051   17.57133776054318
C         2.99632996464403    7.84787462762417   16.24427608373864
H         3.10848832137430    7.16316900711676   15.40620801582555
H         3.63194294994531    8.71506115787882   16.08614172408451
H         1.96663725100271    8.19795911331243   16.26325656117425
C         2.24685752900988    6.07532649872957   17.82019672033240
H         2.18271671065181    5.84362981559417   18.88757652948182
H         2.46885414404619    5.16794944620901   17.26091339983086
H         1.27497063325872    6.44617871504033   17.49989374307104
C         3.25292974305391    8.18634690276480   18.70661520403423
H         3.98020707125502    8.97879209277514   18.53919550488360
H         3.47066368301711    7.71142829074924   19.68347309887823
H         2.25750504042295    8.62336314490835   18.75220322744945

