124
CSD_code = NUFWES | q = 0 | S = 0 | Stoichiometry = C67H49ClN3OsP3 | MND = 6
Os       16.25982098834396   13.63488553225683   21.54443182446449
Cl       16.11046921419204   15.97039328012024   22.10090913948049
P        18.56299384460536   13.96936121263666   21.40707826447545
P        13.94070319802128   13.67450589278696   21.84229852343026
P        16.30201398834307   12.34551639658727   17.19825865947799
N        18.77609365934560   10.87491579889583   25.67056898533111
N        16.50683158611269   16.14380253868728   27.04904607170647
N        19.24054832517058   13.23203806272032   28.68743065044362
C        17.16890404167413   13.82587274118913   16.64842534252906
C        16.22916132858135   13.49433474750451   19.61801169879024
C        19.16524718694021   15.46313296184551   20.54399246542027
C        16.36739403761149   12.31003420737681   18.95411589607961
C        16.39190352336758   11.16344016252048   19.82812584916738
H        16.42010111334838   10.14285927546752   19.46229875991824
C        16.50193058998975   15.04291518389396   16.76241529043410
H        15.47739325149171   15.05835598494751   17.10866754516796
C        16.35577032193297   11.56137640612114   21.13396432677048
C        16.33931181437469   10.69903558294257   22.26033490046551
H        16.27610594244674    9.62244755422569   22.16421228708216
C        16.40038591635587   11.33874079886379   23.46360051444404
H        16.35209449298788   10.80280437968829   24.40301385638021
C        16.46518930992117   12.75822455531840   23.41542428737637
C        16.77539735353889   13.52285878212120   24.52236241524089
H        16.52805704312047   14.58059460166742   24.52687850584856
C        17.48808417857256   13.08855146703299   25.65814223703428
C        18.17190353717804   11.85144347349517   25.65706529851143
C        17.68840098835820   13.90013308703093   26.77747632130173
C        17.04738333743662   15.13664188790620   26.91391720106587
C        18.53857934007076   13.52115532260454   27.82282973542447
C        19.51480623422341   12.66022724785767   20.56297425386818
C        17.05003792908925   10.88081514975091   16.45181108551870
C        13.41011315345568   14.81134052144548   23.16074527990190
C        19.43845440995606   14.19599934550115   22.99536538839280
C        12.99912324187197   12.15080957092257   22.22030439165303
C        14.59848435306501   12.47808901886133   16.58680641133769
C        12.83436596783151   16.04672632639108   22.88897625313830
H        12.61749978046082   16.33153157289287   21.86894892536415
C        13.20673095743840   11.06048775432553   21.37958979581700
H        13.92587986297248   11.15580327189136   20.57861702113994
C        12.07491767229480   12.04115574454372   23.25292772393357
H        11.88017379669900   12.88165240445412   23.90316496390026
C        19.49745061689096   11.37636469112495   21.10597349734730
H        18.91957944943156   11.18508174749554   21.99962022433388
C        12.91683753213403   15.71653093238645   18.46219966748571
H        13.38071658977200   16.45869813571498   17.82742583866842
C        11.98201378147116   12.64934358205176   15.71167556837419
H        10.96084540072487   12.71726084171699   15.36815918740599
C        12.51918372373352    9.87857049301993   21.57403961149965
H        12.69138253189046    9.03890493816745   20.91601439491062
C        11.61177067921773    9.77040277945635   22.61604757075814
H        11.07729019734012    8.84572928054133   22.77656196732789
C        20.48460021971089   15.86946818949578   20.73873834634820
H        21.13628684472347   15.28839881893487   21.37774369227044
C        12.56056925375349   16.92095335301072   23.92588056661665
H        12.12090620540728   17.88376025510017   23.70857267509169
C        18.80628051985862    9.24875964732679   16.52575234160836
H        19.69217406604578    8.84950859263024   16.99548738181748
C        13.56408548862630   12.03776000872688   17.40386406874420
H        13.79278236697292   11.64632377388274   18.38498588183915
C        18.49349932555691   13.78105886817011   16.23177733976934
H        19.00369539404222   12.83059859981239   16.15684217942226
C        18.33524733495934   16.20619550038062   19.71675410736724
H        17.31517970091489   15.88375250069930   19.56267812339045
C        20.20593409645657   12.88720617837271   19.37795963319825
H        20.19646460763428   13.86920069456881   18.92596397531218
C        18.80723321789504   17.36188931231923   19.11896360238982
H        18.14753286419448   17.95779458194524   18.50621530662408
C        19.14482670402080   15.37748277820581   23.67822523693959
H        18.45671824455138   16.08929682415760   23.24104375668789
C        20.59245831137303   14.71651259399438   25.47083769312309
H        21.03184818454870   14.90778262866306   26.43856161436523
C        20.91215906697034   11.85898776123791   18.77656590056565
H        21.45666187645967   12.04655696010107   17.86160531591788
C        19.72024312863004   15.63577513622704   24.90712308193820
H        19.47816505847395   16.54879191605672   25.43156049663335
C        11.70577907255991   13.84719837448509   20.11254235170159
H        11.22422457525714   13.12652657195465   20.75816266915960
C        20.92770552681875   10.59619785343711   19.34562868126617
H        21.49548998740772    9.80153303445002   18.88352140995160
C        16.51296037773948   10.26573886352183   15.32604915884142
H        15.61618650710407   10.66006408768676   14.86906977690357
C        20.11501064844401   17.76648980594214   19.32030202786299
H        20.47965735055844   18.67294582440407   18.85914001486604
C        18.47906991499990   16.17055486659973   16.00715280119132
H        18.99252379535497   17.08531611723575   15.75269287742894
C        17.13322587273098    9.14577092435094   14.80224702528344
H        16.72138278334075    8.66460441695970   13.92778460640307
C        13.59175302847638   15.23014619370792   19.56644258389315
H        14.58268406827163   15.59064703977774   19.80790853346524
C        18.27823076462703    8.63970490984087   15.39793517044098
H        18.75594826454333    7.76420922247688   14.98472914148494
C        11.39045260385653   10.85332138912508   23.44920768243811
H        10.67784490440048   10.77652381995611   24.25756508404641
C        18.19407530145376   10.36791728735086   17.05837854190831
H        18.58766096040018   10.84516676528555   17.94559059702193
C        12.86647725004403   16.57714443101946   25.23165690279845
H        12.67303909047724   17.27182884326593   26.03494076203343
C        19.14523874456768   14.95908969099341   15.91362803002792
H        20.17530746344018   14.93304288578970   15.59090690617717
C        11.63913126448364   15.26498167709902   18.17482554441597
H        11.11214248777428   15.64212489131491   17.31045234775527
C        12.25681660084161   12.11816895894399   16.96134407130456
H        11.45484222788050   11.76983725434882   17.59362482309526
C        20.20774689538858   10.35376833173425   20.50514806247244
H        20.20238640449044    9.36685661665805   20.94367941227990
C        13.01250297980360   13.09933082665713   14.90009339805853
H        12.79313483959011   13.51680501374663   13.92856500805916
C        12.99620121704493   14.28239697102865   20.39465921554199
C        20.88740661917076   13.54438054452959   24.79649016415381
H        21.55876032818313   12.82235840532247   25.23648307439883
C        11.03405094362437   14.33811135921403   19.00650818926201
H        10.02958058403756   13.99936274870963   18.79634282430423
C        20.95686100046013   17.01191274653203   20.12259792666229
H        21.97957688876147   17.32293345454401   20.27909469725816
C        14.32325671952131   13.01365007103771   15.33135528004396
H        15.13440300201507   13.36212545502449   14.70530591846715
C        20.31473510627560   13.27964069197272   23.56295126598826
H        20.56081976436301   12.36183894095615   23.05029919638637
C        13.43690495002998   15.34503068290775   25.50812723104904
H        13.69074826304409   15.08141757638764   26.52401982582424
C        13.70715212960452   14.46478130542416   24.47824254098935
H        14.16170471396528   13.50375373128088   24.68515211099275
C        17.15933385283670   16.21181729285969   16.42900527209967
H        16.64238796245009   17.15701852867112   16.50060106967700

