39
CSD_code = NUGDOI | q = 0 | S = 0 | Stoichiometry = C19H13CrNO5 | MND = 9
Cr       12.00400754203066    2.30096717752913    5.49060581060048
C        13.29342957533173    3.55417987606740    5.83374421687478
C        13.00293615744232    1.42388779326993    6.75026505093283
C        11.08337351155323    3.03180162606919    6.89231121754298
C        12.24240496069452    0.76242953027579    3.75682106416799
H        12.96837828595625    0.00613307481189    3.47321075548760
C        12.41678402397029    2.02559270190356    3.21468435060224
H        13.26601836499954    2.15753219520804    2.55035268829378
C        11.65158755762888    3.19955522802768    3.48684588521655
H        12.09565448316292    4.13346373280320    3.15234861912569
C        10.43624647192463    3.26197104688643    4.12323879822672
H         9.99119546499628    4.23935030454514    4.26264343198109
C         9.49444265737191    2.09276850939695    4.19887788778435
H         8.54836876233158    2.41884636033186    4.64335458529544
C        10.13087213642186    1.04825932114804    5.07193791142806
H         9.49383915551156    0.60407984209891    5.82668722846146
C        11.25850578199945    0.35573379014659    4.70667331261238
H        11.43750214892562   -0.60307461734201    5.18486904633998
C         9.17026502717015    1.53854713718378    2.77992728064804
H        10.10481966133576    1.26653155476735    2.27672070851481
C         8.22342135791569    0.34944624791902    2.86347857157297
C         7.30683737162865    2.00086171114842    1.73586543728708
C         6.24728433749300    2.64607310239723    0.98874853737558
C         5.03923196650665    1.98948745938768    0.75856020915785
H         4.89524883979639    0.99093616888531    1.14156794422058
C         4.04044282776367    2.62323253103645    0.04381662633465
H         3.10420093439255    2.11622479798527   -0.13497624667067
C         4.23851204650269    3.90579352654631   -0.44255077036702
H         3.45518795319755    4.39653867917134   -1.00071473106870
C         5.44002816884297    4.56094263533442   -0.21430708885183
H         5.58997488342618    5.56001646048954   -0.59488715221077
C         6.44444705743153    3.93788723378217    0.49872002363831
H         7.38719468879219    4.42495455413889    0.68980836826895
O        14.13032813202967    4.27691713641315    6.15854398313260
O        13.68406154054377    0.99144080547046    7.57250937436073
O        10.52460102780129    3.49246601568427    7.78479539372736
O         8.37593537187264   -0.70970284279007    3.39340861402230
O         7.09005519478921    0.72206124206492    2.21301200986322
N         8.44537456852503    2.49716634980546    2.00108104606827

