92
CSD_code = NUGGED | q = 0 | S = 0 | Stoichiometry = C32H44CdN8O7 | MND = 7
Cd        4.82531352165423    4.10099439284474   12.68037145628709
N         6.73436634346029    4.30589804548207   11.32979956503476
N         9.12701296735735    3.96038388435479   11.13686329888703
N         7.74070793694721    3.88457219861322    9.16385381088282
N         8.13370110671435    5.98709188237339   10.28190737498940
O         3.40523009265704    2.99871570349198   11.37000731786905
O         3.79729275093607    5.13886430995569   11.05233837522763
O        -1.23768298910859    5.76003855655284    4.36702968043346
O         5.68106581171158    1.40539383672333   12.16869582024395
H         4.76501879529625    1.35510211001046   11.86996761982006
C         3.23372306546162    4.06510134178146   10.72162163297310
C         2.33670864605589    4.03878987765397    9.54742612004662
H         1.92635526847995    3.07136125577543    9.30268533680929
C         2.06599038211257    5.15558499720264    8.86218461076294
H         2.53755862326018    6.06588891039852    9.21433175063501
C         1.21150229721033    5.29763212433831    7.70313413675832
C         0.53526474102527    4.22409772999547    7.11131635972855
H         0.64189283705676    3.23235874573049    7.52107771129164
C        -0.26511916643718    4.41316867808578    6.01043609262675
H        -0.78735512887475    3.58833289661580    5.55161520005211
C        -0.42478633086572    5.68565884636983    5.45251760983361
C         0.24145647141254    6.76275914541364    6.02971559498202
H         0.14232982472968    7.75853181143830    5.62672966467649
C         1.04381064953059    6.56155919302189    7.13576036999910
H         1.55484410586232    7.40706789311974    7.57356350389903
C        -1.44034917429464    7.01298848426795    3.75902806349535
H        -0.50246303562530    7.43329881205244    3.38206870758136
H        -1.90664121279974    7.72357869413455    4.44901509132526
H        -2.11336122733035    6.82946977733743    2.92305866318957
C         7.94513978501827    3.74539730209526   11.95554425142759
H         8.09932955216285    4.22681291302247   12.92621714833962
H         7.80191455812656    2.67051516122144   12.09999379862239
C         6.57772848004296    3.67053911944207   10.00935656194485
H         5.70028833614871    4.09527559574334    9.51189753051924
H         6.43241121785506    2.59553639527455   10.15048594764957
C         6.96488536940045    5.74595806185545   11.11255926415113
H         6.08316702562938    6.17321430487711   10.62463420226267
H         7.10874606219417    6.22914268606001   12.08413699278902
C         8.90956033562472    3.33353165189321    9.83875289565841
H         9.79183044943409    3.49556467619310    9.21261910046451
H         8.76242001554977    2.26003384829488    9.98337388029488
C         7.93677801726705    5.31984613216916    9.00072264745386
H         8.81545689579801    5.48998528948058    8.37149696763630
H         7.05654804233194    5.74472814499032    8.51019113037519
C         9.29513932894371    5.39412112926125   10.93371299288686
H         9.44211741763698    5.87534892763023   11.90466393170878
H        10.17866078235451    5.56436808290130   10.31133089902567
H         5.64918639230343    1.39412492285018   13.13289054647083
N         2.81556338263704    4.45068739251173   14.07880168344816
N         0.52942841004482    5.26030260280860   14.18153864789661
N         1.12992074891711    3.20840946798427   15.30384627011324
N         1.91385450398363    5.32778081375851   16.15485121923779
O         5.60685560092159    3.10429152923631   14.50691264618012
O         5.97578165277650    5.24283473803250   14.15256865913632
O        10.50639164670405    6.28854059036087   21.14270482167752
C         6.12558794401558    4.20250870359899   14.84176759690225
C         6.92237769247373    4.25357500807933   16.08536946876391
H         7.04259472525123    3.30945747698960   16.59373716167861
C         7.43694729343269    5.40626476641008   16.52877554306917
H         7.23815163528644    6.28774213385097   15.93005055440062
C         8.22786175476766    5.62065398220714   17.72147661005438
C         8.59398870757185    4.58982087126948   18.59521200638798
H         8.28449094007497    3.57760717381245   18.38919833988248
C         9.34710839921258    4.84658088167403   19.71554258135488
H         9.63156312177509    4.05473857091358   20.39059066034372
C         9.76758577284106    6.14710265724484   20.01185386281414
C         9.41181844823960    7.18241308265665   19.15234314703763
H         9.71833502510262    8.19800215183865   19.34842118563969
C         8.65490189261853    6.91323471447131   18.02877947650591
H         8.38563094118047    7.72700402202856   17.37075785017208
C        10.96549579531132    7.57158591833970   21.49431820888512
H        10.13424449950216    8.26201136934539   21.66974366240025
H        11.62724994321321    7.98569831441945   20.72681292316692
H        11.52524769153068    7.44099120731986   22.41905841534537
C         1.72805967870165    5.14016215829364   13.36652290149113
H         2.06924526838172    6.13876183782483   13.07537523924512
H         1.47473813164916    4.57580850304752   12.46478763952956
C         2.32041540448894    3.12012723639792   14.47172553181575
H         3.10812067204781    2.60238404768013   15.02924474709400
H         2.08184278369930    2.55220836145637   13.56622311075702
C         3.09203769934520    5.20664865321028   15.31064976543216
H         3.87111731789479    4.69260305015992   15.88040245971681
H         3.44975507937665    6.20608808821071   15.04312627802239
C         0.09710402077733    3.91982040760041   14.56029100721375
H        -0.79944909514650    3.99780411125121   15.18207629586699
H        -0.14211340920221    3.35566063806670   13.65460418169319
C         1.45354403550798    3.98599781341642   16.49394321584401
H         0.56111514127065    4.06434749829936   17.12159972702308
H         2.24089454560678    3.47183387959356   17.05204479996097
C         0.86481360033491    5.99506993644912   15.39456045306176
H         1.20675046755251    6.99691858022249   15.12037629892110
H        -0.02936555021580    6.07938657549615   16.01901191577850

