41
CSD_code = NUGHEC | q = 0 | S = 0 | Stoichiometry = C14H21BClFeNO2 | MND = 8
Fe        2.27517748946112   10.02956588597437    2.63062803249347
Cl        2.79138922440599   10.50150355201932   -0.36407404491482
O         1.54083837544275    7.30732645824345    3.19418396374790
O        -0.18938875256397    9.81914465260947    1.16234732637231
N         4.15747869947291    8.52715421267945    0.79825963354622
C         1.90405158318458    8.38318213408335    2.98733535251284
C         0.80205179373561    9.94575798796454    1.73022163232863
C         4.85610578279140    8.29160124028546   -0.45378243336313
C         4.62466643176215    7.60817540729832    1.81346521151328
C         2.67132259337934   12.14282235445849    2.74230165004463
C         3.91624015149437   11.46152511803168    2.83416680476397
C         3.85181797029300   10.59354511622764    3.96793186108456
C         2.59325437121145   10.80173960465022    4.61561780519286
C         1.85830307742801   11.74375591107657    3.85487811119113
C         2.36347687980341   13.24778527700677    1.78203543480420
C         5.12738815173815   11.75173753012803    2.00595049498583
C         5.00550491076499    9.85146454656415    4.57017925052206
C         2.18619185495898   10.20591142885815    5.92593521888287
C         0.53978013411111   12.34398619195287    4.23048981268159
B         3.16803974891325    9.47918420664593    0.99483043816927
H         5.93166311815493    8.43878315701708   -0.31812553319546
H         4.50120558907919    8.97613900456481   -1.21843799187084
H         4.68908411624492    7.26451917993245   -0.78963230065831
H         5.71083403393724    7.68328332574617    1.91737073692422
H         4.37933679138921    6.57834264076062    1.53991697652249
H         4.15740395252653    7.84154989369140    2.76507601607883
H         2.83613090130156   14.17560065244203    2.10915704869559
H         1.29202200775018   13.41505018724233    1.71279429008616
H         2.73334707991382   13.00823021971385    0.78817472125756
H         5.67362985507082   12.59386111154072    2.43576648055898
H         4.84842395027212   12.01241977710601    0.98841342656900
H         5.79519629507713   10.89478927295229    1.96971671273845
H         5.48251031333497   10.46628542976329    5.33599994953456
H         5.75132808524102    9.60933514012894    3.81833108211855
H         4.67649828771230    8.92725115801516    5.03993361028877
H         2.60960683053525    9.21220001862907    6.04725217134794
H         1.10469663873716   10.12591011146361    5.99701865080637
H         2.53815687398708   10.82950119003531    6.74968573070952
H         0.69295497482307   13.23879373462547    4.83651411814502
H        -0.05658923568949   11.64035411215662    4.80559167300613
H        -0.02593093118878   12.62473186571305    3.34588087377868

