69
CSD_code = NUGJUW | q = 0 | S = 0 | Stoichiometry = C24H39Cl2N3Ti | MND = 8
Ti       14.66358519492403   -0.06457197407172   14.69213897759741
Cl       14.77338685361363   -1.19127350568848   16.57532885647915
Cl       13.02500649798887   -1.24466336760595   13.80855384248334
N        13.76841816824275    1.30257801740603   15.30459147092248
N        11.68493271611434    2.24056342859463   15.83035988933698
N        13.44689618787631    2.79033804093738   17.09005074870453
C        16.62498374366520   -0.88629125708066   13.76493403419777
C        15.83044548960763   -0.38285080797154   12.71013408186689
C        15.67103580062317    1.01117281439176   12.88540666182380
C        16.38151255633752    1.38282185019830   14.04745678938525
C        16.95487446386822    0.21187869539771   14.59882206812676
C        17.11636393926085   -2.31429752728153   13.88058897003853
C        18.06683904752288   -2.59437944509761   12.70529504638362
C        17.86632695605570   -2.53453641741685   15.19846560342529
C        15.92679892141599   -3.28386181623743   13.82143987461814
C        13.02155128078281    2.03050931221067   16.02605700842049
C        11.22763528023495    3.34439500604747   16.64469619164116
C        12.30908276756952    3.41469501201344   17.73320992471128
C        11.06583827344889    1.78028409084495   14.60385425076769
C        11.52497088876007    2.58710535892382   13.38288422300821
C        10.96453879771449    1.94581303647680   12.11787201533251
C         9.44061823385452    1.89118246888435   12.18124902164769
C         8.98163754146017    1.12788607537556   13.42046978494495
C         9.54405296812572    1.76916671573424   14.68746915942370
C        14.66936233352615    2.43213510932896   17.77643970460627
C        15.43876840428785    3.66163478081276   18.25478798761790
C        16.79690349755787    3.22328847152382   18.79724767498128
C        16.62264370600995    2.22249332057086   19.93657899536014
C        15.80396049373555    1.01697087846593   19.48260309412365
C        14.44908087476330    1.46319765263625   18.94238344348413
H        15.47853946161211   -0.93977504106637   11.85045500371243
H        15.20167123385963    1.68851353056120   12.18072357341892
H        16.54692702972511    2.39622511163553   14.39454112191724
H        17.63220953636091    0.19421673245055   15.44369454683933
H        17.54815238967191   -2.49191110063288   11.75493799172907
H        18.46290194587908   -3.60536375868929   12.77419434430640
H        18.89997684761487   -1.89422231824521   12.71717956398651
H        17.22348978654443   -2.30258811531785   16.04710567857903
H        18.75933620032814   -1.91420201661538   15.24582422433558
H        18.17451986272714   -3.57517106097094   15.27706471820927
H        15.36975464806219   -3.17186305147712   12.89224936557592
H        15.24802328763038   -3.10624684886780   14.65912779462593
H        16.27926712237063   -4.31228036341879   13.88267057003378
H        10.23723783436492    3.14381819977577   17.05810276870920
H        11.18728207097010    4.27783939352254   16.06550092232542
H        12.54360603692398    4.44208927856416   18.02120825051157
H        11.99959912453456    2.85728877456367   18.62679872064806
H        11.42285287974939    0.74722472136470   14.47485401334648
H        12.61964613822858    2.58481309964833   13.35445382407574
H        11.17618952646415    3.62001032075101   13.46732608166747
H        11.28090945025534    2.51233494693524   11.23956612893070
H        11.36562086218913    0.93301268388644   12.03250440384161
H         9.04190867275362    2.90853060641823   12.21283258121230
H         9.04933955439847    1.40719009673478   11.28471649329513
H         9.33234386164886    0.09617453251209   13.35804747424458
H         7.89084797046978    1.11321155245059   13.46655314318187
H         9.16760028723732    2.79128014417308   14.77690203282845
H         9.22455394518820    1.20494985891374   15.56535603042744
H        15.26863071607290    1.90810969644259   17.01068629951267
H        14.87567997069972    4.16517221578361   19.04386031968861
H        15.56778804822662    4.36138961593977   17.42693547731000
H        17.37008828304826    2.75810909556671   17.99209289294584
H        17.35500204530775    4.09375458062441   19.14825957416638
H        16.11304881155572    2.71167956051188   20.77038641469790
H        17.60116680625235    1.89402766827401   20.29160828599678
H        15.65988299479828    0.32950997631235   20.31769685139079
H        16.33452488354274    0.47734120043989   18.69472536512427
H        13.88574237884735    0.59656982735095   18.58857117215684
H        13.88168561494722    1.95445263486602   19.73681658504126

