76
CSD_code = NUGKEG | q = 0 | S = 0 | Stoichiometry = C39H32IN2PPt | MND = 4
Pt        5.41837671020523    9.17543767194428    5.14057390004330
I         7.77405256857547    8.63400973634027    6.25030110037969
P         6.05390303747310    8.20957975871671    3.16801035459822
N         3.57900487800783    9.45894144213447    7.34833058275374
N         5.10939061406058   10.92788641470947    7.69385654462292
C         2.47320858467491    9.07033272973970    5.25295280384729
C         4.70341006053105    9.98394181696023    6.82839942510713
C         3.27497978538961   10.06842601184651    8.53042542127651
H         2.41742937454275    9.80402513279287    9.11435266290710
C         4.24402808226831   10.98957135117784    8.75304009059578
H         4.38239632855380   11.67345135238973    9.56471596315740
C         6.27546044085884   11.75403998819838    7.54020388660916
H         7.07962123328023   11.40647563537381    8.19188488896794
H         6.03417509518885   12.78915215767740    7.78220614291919
H         6.61671055472081   11.69248207571012    6.50637880635616
C         3.53865710517364    9.51386096537085    4.46192178211253
C         3.23346398513206   10.11899620206135    3.24721189832148
H         4.02949084459667   10.49175753362783    2.61099601014069
C         1.92112930060019   10.25667743655981    2.82136028443293
H         1.71223175242156   10.72860163665562    1.87130271673374
C         0.88232151992863    9.78514298063592    3.60325263106540
H        -0.14052207377770    9.88032632087370    3.26950938884711
C         1.16119340863508    9.20090468028927    4.82726818566856
H         0.35318725525118    8.84285383883227    5.45189757444721
C         2.78421758455938    8.49394152426252    6.62052253046615
H         1.87197708579963    8.28755213019962    7.18397292685368
H         3.35825353749737    7.56144141597064    6.51840353754936
C         4.78629082954309    7.36462248222939    2.11560484680456
H         3.89198796398938    7.98850600955132    2.07681865809438
H         5.17804701064909    7.21986236148875    1.10579177726927
C         4.51815575885836    6.06203241247139    2.79952705593756
C         3.44356912404614    5.94686834526081    3.69820888399440
H         2.77998562750657    6.79065563441575    3.82496737384453
C         3.23471714775047    4.78633936618002    4.38741651831068
H         2.40481257940619    4.69820230469192    5.07439095088712
C         4.10145702461050    3.68586115718460    4.22598001829954
C         3.92034992365637    2.48660503211782    4.94579465922055
H         3.08323023084942    2.41464188772359    5.62599844297886
C         4.78552696316287    1.44055280796285    4.79347301938370
H         4.64047619479032    0.52559206133475    5.34898898250033
C         5.87843364110518    1.55230111948071    3.92029709542994
H         6.56473532116732    0.72412054092341    3.82137267613574
C         6.07961016287831    2.69804453940959    3.20368329306408
H         6.92715622760204    2.78234185102064    2.53972559617491
C         5.19211574422325    3.78968524888690    3.32218585847910
C         5.37361787653396    4.99679728749639    2.59959778453931
C         7.38872203884237    6.91769938522737    3.17179567492306
H         8.33191037325494    7.43408426071710    3.36832337366015
H         7.17108178888053    6.27432770822459    4.03288105132328
C         7.46496241535050    6.10608085980472    1.92229553018984
C         8.53807584572967    6.28724126486638    1.03053879556547
H         9.29486491042746    7.02089378570088    1.27013417705297
C         8.62987140560379    5.54923689654323   -0.11440443380864
H         9.46073338395197    5.68793385390346   -0.79117750163088
C         7.63897544195636    4.60036221277084   -0.44097404571363
C         7.69735746617861    3.84524901301925   -1.63060036095449
H         8.53690826740347    3.99378310401265   -2.29505982831073
C         6.71346733808486    2.94958474846101   -1.94045058152311
H         6.76503790937096    2.37440485355886   -2.85328745305327
C         5.62098624896624    2.77770033575113   -1.07659347692204
H         4.84170304963954    2.07765736553685   -1.34026539332106
C         5.53748143696142    3.48909417337527    0.08700008116692
H         4.69117548709741    3.35802298166523    0.74490940014450
C         6.54790576084224    4.40730468774358    0.44713798236322
C         6.49378240778472    5.16246080274173    1.64746880128602
C         6.73372616627629    9.50956272156885    2.09520132737939
C         6.89793474651019   10.75815778681863    2.68900463880135
H         6.58404897340837   10.88771220731880    3.72945010466230
C         7.43815631614983   11.81063583725459    1.97534451537588
H         7.56446191941793   12.77659053477174    2.44181431320261
C         7.81947478688040   11.61878004375584    0.65714387089618
H         8.24427901619144   12.43650755305129    0.09382367446115
C         7.65670172315597   10.37923722030748    0.05916267181664
H         7.95467607504678   10.23326005665187   -0.96904724668905
C         7.11523133081144    9.32432694269947    0.77148219173553
H         6.99838196329720    8.36026441109827    0.29747261360800

