93
CSD_code = NUGPUA | q = 0 | S = 0 | Stoichiometry = C48H40O2P2Pt | MND = 4
Pt       11.85022052577142    3.80940507928884    4.00552015503427
P         9.93035175160943    4.39907417836227    5.08205574160724
P        11.10635933416479    1.70157854557868    4.13081117461737
O        13.61810018323586    2.92724933626576    3.45800249731149
O        12.68802475653286    5.64882759971775    3.61138919465053
C         9.47668791778769    2.84746307899955    6.04153808414931
C         8.15152991327314    2.98105751796870    6.78397466715457
C         9.48018476127954    1.67088514351865    5.05267299069892
C         9.22953888206632    0.31804125632658    5.71008038832430
C        14.26081547072079    3.28649040595973    2.37658434762062
C        13.76965704876640    4.12942108079506    1.37449031883631
C        14.59752246010656    4.45434361130232    0.26357850168687
C        14.22279310747705    5.41620357290723   -0.70165939220146
C        15.03096046325731    5.71075592340948   -1.76428623269442
C        16.26539134549686    5.06760464593474   -1.92514156830174
C        16.67656400397258    4.15795359905841   -0.99135041437235
C        15.87062083250986    3.84209411427195    0.11830941949396
C        16.30466367473204    2.93387577330536    1.10743384309701
C        15.53576338140889    2.67711938288537    2.19625128701379
C        12.02147140228588    5.56382738241530    2.48625312778569
C        12.41338231766302    4.70647497127370    1.42706870437524
C        11.51118712236273    4.48795903070113    0.34824075131050
C        11.72870443043711    3.46273974089065   -0.59853094796413
C        10.83762369126619    3.23350580028934   -1.60908156568987
C         9.69210675899974    4.03033987880605   -1.74370199807884
C         9.44985963949743    5.03014962542794   -0.84158532756409
C        10.33142769293757    5.27101959558852    0.22761604132265
C        10.07107665062517    6.26575338743160    1.19808791774560
C        10.85881409261579    6.37815513836967    2.30006745923677
C         8.48469949081909    4.54037795673917    3.98537702151869
C         8.61007194675712    3.98667355502297    2.71358226440402
C         7.54049222091078    3.98838636063026    1.83805878911610
C         6.33758657077257    4.55772626242496    2.22315912659263
C         6.20668812094427    5.11577325120585    3.48508111232294
C         7.27152952092882    5.10484984578106    4.36870359743457
C         9.79331533494115    5.76331485336239    6.26453720435956
C         9.36351833869551    7.01604803651334    5.83187750170040
C         9.37088905512157    8.09152378794343    6.70043059207568
C         9.81833526542922    7.93226211555727    8.00192063206316
C        10.27450368132570    6.69560209218626    8.42957383148054
C        10.27414185503910    5.61775651064052    7.56426461859461
C        10.88201993548380    0.83071423727707    2.55932003519936
C         9.65520211281418    0.62364466072248    1.93671203490714
C         9.61231315804781    0.10013046809293    0.65617753655655
C        10.78349689276219   -0.20740511001905   -0.01479890177161
C        12.00915987174477    0.00363199067306    0.59842750821666
C        12.06025044706064    0.52250162369832    1.87654536569483
C        12.22627196287496    0.66634052056640    5.10435847821908
C        13.01640512025468    1.31683798955507    6.04779757686805
C        13.89066785645042    0.59136296914517    6.83521252357345
C        13.97916469303996   -0.78362576734408    6.68304531846976
C        13.20008422483076   -1.43197897871332    5.73772020842623
C        12.32356355811829   -0.71212923643815    4.94592096085433
H        10.28957326453314    2.69043702092649    6.76436370773117
H         8.13081047148581    3.90236517999996    7.36328613232300
H         7.31978859314682    2.99550314120197    6.08210391024624
H         8.01037780708557    2.14949535225723    7.47100599542964
H         8.69366453699439    1.85838096090198    4.31065852323212
H         9.35587074227167   -0.47885048523780    4.97903054354015
H         9.93037611965628    0.14832954479987    6.52530609626798
H         8.21625308958449    0.25849101599817    6.10161881130499
H        13.28638114661089    5.94125077186939   -0.58733148869523
H        14.72109290072259    6.45333993438001   -2.48632153605964
H        16.88946014055725    5.30668913002299   -2.77445908626155
H        17.63763925429513    3.66980263611969   -1.08419741363793
H        17.26862954479675    2.45660834045364    0.99311788138972
H        15.86423801669723    2.00218128366652    2.97447403607655
H        12.60702759858620    2.84213077373487   -0.49805347161886
H        11.01422361440106    2.43366453292818   -2.31430423283451
H         9.00461160452740    3.84671102237917   -2.55741388564233
H         8.56527627569058    5.64760053298738   -0.92743906723215
H         9.21150244853968    6.91003079161768    1.06699009721638
H        10.66040677832471    7.11431579433686    3.06836786727569
H         9.56229520634391    3.56107235838019    2.41010688845137
H         7.65501693440923    3.55901308193189    0.85413285364369
H         5.50185780399497    4.57108414322228    1.53942073285176
H         5.26870588214971    5.56062193635847    3.78398323217766
H         7.16139304496517    5.53829479775917    5.35245371185873
H         9.02398485985262    7.14123282125519    4.81322655606838
H         9.03273407033588    9.05905091836595    6.35965606253798
H         9.82397178723648    8.77374526122215    8.67835982451974
H        10.64031601167203    6.57436194228562    9.43860433469310
H        10.65368031171564    4.66098904083294    7.89400547649254
H         8.73152795989002    0.86806909977129    2.44118970210030
H         8.65726782360548   -0.05970079195699    0.17745340974840
H        10.74179260434288   -0.60441504749212   -1.01784801695420
H        12.92499847109735   -0.22628936049345    0.07466466024895
H        13.01002223915960    0.71076626996797    2.35824858655421
H        12.95880559835112    2.39938357939453    6.12081034127512
H        14.51182401176660    1.09598826833733    7.56017906403189
H        14.66569867034076   -1.35110251986476    7.29383751377308
H        13.28071005107187   -2.50196840712479    5.61334923085021
H        11.72621786084822   -1.21436306023549    4.19716831184912

