81
CSD_code = NUGPAG | q = 1 | S = 0 | Stoichiometry = C30H46IrO2P2(1+) | MND = 4
Ir        5.73770500578591    2.17282514846084   17.63025864116494
C         6.10405991657927    4.01785343231766   17.46509619314797
O         6.38134366772511    5.11842205012865   17.33908204045926
C         5.60150970992769    0.30783700592195   17.68706294741293
O         5.64885401440109   -0.83755658173676   17.66040791194845
P         4.66963197909768    2.32127794355164   15.47708574549458
C         5.99000834059986    2.16777809088049   14.12486584275493
C         6.85386026798438    3.42827148135768   14.22164030597091
C         6.86094940143059    0.96688916230624   14.50952099766558
C         5.49913784198098    1.97642894320728   12.69166110814369
C         3.17005749059123    1.20034524532750   15.15489938242913
C         3.59360306781450   -0.23815502015297   14.86551088839104
C         2.29658022572113    1.72194532916198   14.01493177237325
C         2.36063569377251    1.23255051994771   16.45497221800494
C         3.87661542240739    3.96601984931324   15.35270741472181
C         3.72529395296574    4.71768082201711   14.19211891459799
C         3.09530925655828    5.94995905258560   14.23316293862373
C         2.59387813309634    6.44459251349661   15.42483139049091
C         2.72011919276606    5.69661461573460   16.58390456108697
C         3.35754642482839    4.47182503580948   16.54410306003198
P         6.72648027072337    2.30369972558132   19.82195080608930
C         8.61056731826781    2.16645233126790   19.65669244301646
C         9.07424484729010    3.43753185024535   18.93988156884499
C         9.40971893746775    1.96936661585441   20.94283365538177
C         8.87400671104416    0.97640596910532   18.72772603194008
C         6.03512571921403    1.16456185967351   21.17600031272089
C         6.53902432164525   -0.26837061560589   21.01711165403709
C         4.51605323427903    1.18640048925612   20.98053893241232
C         6.36031133346682    1.67554975829670   22.57878098142524
C         6.30542486983901    3.93804073687904   20.52930305433102
C         5.05187615014912    4.43683613845702   20.17647742018017
C         4.60495375775150    5.65274955934078   20.65582675376567
C         5.41217422397860    6.39851866484731   21.49912888814808
C         6.65480720820361    5.91074731714101   21.86547395049369
C         7.09810441130192    4.68728156657500   21.39246685169552
H         7.27505130267819    3.52562871953243   15.22255141315381
H         7.68248534836236    3.36007666524678   13.51933956584180
H         6.29268883158918    4.33114116160865   13.99475213073995
H         6.31141256301937    0.03180145575213   14.45131229622550
H         7.71142736259068    0.89849482818091   13.83404755856177
H         7.24563728580248    1.08247569226345   15.52551190053678
H         4.86334784029641    2.78793969511599   12.35209571658342
H         6.36454157258283    1.94348606779682   12.03067636022007
H         4.96346843185077    1.03920955963947   12.57162677778061
H         2.71012583473198   -0.87460029911714   14.85409616492232
H         4.07265641931622   -0.33123906996517   13.89507134733246
H         4.26528901568225   -0.62130462575683   15.62784771467264
H         1.91594776879269    2.71811268208322   14.22827932513562
H         2.83005537748392    1.74767285516867   13.07005039511418
H         1.44209949316253    1.05801942880984   13.89542037925590
H         1.95438982120876    2.22491525735510   16.63866088249939
H         1.52471777330387    0.53936378126996   16.38587300323624
H         2.97460182281982    0.93752845975272   17.30846677533818
H         4.09037226419409    4.35466091527583   13.24558366052326
H         2.99415967878621    6.52453884445326   13.32515543035197
H         2.10561325628196    7.40606563952029   15.45000066511786
H         2.32426341560777    6.06940789581141   17.51639316470056
H         3.45487349529597    3.88715054197663   17.45189885712835
H        10.14554530303479    3.38468724706916   18.75549128340558
H         8.57663619516765    3.53397457815087   17.97475667804945
H         8.87586439898165    4.33438190137750   19.52129863646899
H         9.16710606294317    1.02820591668672   21.42762022073104
H        10.46935133502646    1.94175851435089   20.69112873615942
H         9.26727093723331    2.77620033288508   21.65477554102505
H         8.58677625019287    0.03372405156579   19.18443538131991
H         8.32307688435179    1.09217677876934   17.79133920298375
H         9.93449884000345    0.92412348211071   18.48931570717557
H         5.99149226583497   -0.91684108515511   21.69931569588649
H         6.38058014924612   -0.64157607965833   20.00974962301707
H         7.59345073142476   -0.35578035336668   21.26296786459242
H         4.10908803201135    2.17427645946794   21.18565349430242
H         4.24551335330253    0.89612589994499   19.96330464800057
H         4.04623405325819    0.48490320612631   21.66700153846816
H         5.91951645019305    0.99962416754689   23.30957197254222
H         7.42921903253549    1.71090073432055   22.76361546502574
H         5.94372106637214    2.66568915965425   22.74848864902431
H         4.41866652450152    3.85288231641830   19.51784774495071
H         3.63038930030788    6.02006432740212   20.37203457817856
H         5.07355928976913    7.35297465980332   21.87037526623902
H         7.28564940389053    6.48372335466448   22.52773592333241
H         8.06379584436517    4.32897767154180   21.70894708472545

