98
CSD_code = NUGTAK | q = 0 | S = 0 | Stoichiometry = C32H48ClMnN16 | MND = 5
Mn       -1.05340833904921    1.14357321331500    4.42428266765610
Cl        0.76498383257820   -0.06130903891870    4.24659045546671
N        -3.01387857718391   -1.51550625433298    4.85077934316402
C        -2.49839382745857   -0.94680353862903    5.91563339751757
N        -1.75704584156203    0.19932468266704    5.93611433329284
C        -2.74236762748402   -1.42876398883472    7.27272837959155
C        -2.16269976951632   -0.48518856824888    8.10459298387505
C        -1.51493444672001    0.47319215438995    7.26485947441053
N        -0.73806869098350    1.43062282815827    7.73545993432757
C        -0.12693445192327    2.31036336364685    6.97440014648426
N        -0.24783413732307    2.41497566050710    5.62625926795698
C         0.69979553382509    3.39946266802017    7.50888343239468
C         1.00680493269805    4.18806607441643    6.41574423665870
C         0.45411756750398    3.54894686307356    5.26415805130870
N         0.62815653988091    3.99669752749005    4.04117837985710
C         0.11105850415159    3.42729364180272    2.97127659411565
N        -0.67478589533867    2.29598909438141    2.95213878956286
C         0.23037690408551    3.98298461938860    1.65972464120936
C        -0.53623716053455    3.19324856685092    0.81407750259121
C        -1.04858636195217    2.11730232542816    1.64626588107929
N        -1.69346219096209    1.08197614195169    1.15798528493646
C        -2.15523999766126    0.10003688574997    1.90399780390118
N        -2.09814496559996    0.03704221940972    3.26334580146666
C        -2.94434390117441   -1.00289295794132    1.36640124353977
C        -3.42457100327797   -1.68076881624982    2.47188421974685
C        -2.85324578189220   -1.05514984916177    3.62450343722363
N        -3.44454129281667   -2.54029746044053    7.59768943593920
C        -3.59486884214460   -3.65803972213701    6.70472501480585
H        -4.64950061595295   -3.93943346889822    6.63307381682873
H        -3.03608895919977   -4.52187615671218    7.08361639017152
H        -3.22649086265335   -3.38852458380352    5.72096155994398
C        -3.85064437294336   -2.81261394376696    8.95225469519483
H        -4.91716779092595   -3.05445808916543    8.96664810969791
H        -3.66006652246372   -1.94356714271339    9.57487257802891
H        -3.30189848303730   -3.67055041323450    9.35603185694473
N        -2.16831129955670   -0.49047646803591    9.52109201733723
C        -0.96824794079373   -1.07783025840391   10.08923797498894
H        -1.10598908930170   -1.18807173778929   11.16547072192598
H        -0.07041444243217   -0.47429850368096    9.90665409919526
H        -0.81776611440318   -2.06233808535538    9.64878181174307
C        -2.51561293607028    0.78921759620899   10.11089697488554
H        -2.61384758767139    0.65428529172497   11.18879150105933
H        -3.47765607508352    1.10559596363789    9.70823694281407
H        -1.77787786360929    1.57165484578190    9.91156765285530
N         1.04002122470642    3.57136811671401    8.80391150053799
C         0.95389423344308    2.53140169031596    9.79281594368999
H         0.31643046221886    2.85118333462247   10.62367976564127
H         1.95093774473121    2.31516441248284   10.19221025179606
H         0.53774145533929    1.63609144335227    9.34364206862430
C         1.67017986326467    4.78005617991638    9.26894998717988
H         1.05566884422042    5.23858891047613   10.05000887417128
H         1.78977320556186    5.47076502215425    8.43758247212199
H         2.65192978039697    4.55352269544129    9.69644662481747
N         1.77377306686534    5.38497059383501    6.40980162000644
C         1.08091295988114    6.49296233823956    5.77636610736970
H         1.68712845156146    7.39276419334535    5.88883029707552
H         0.12878958379736    6.64427666526314    6.28539989838282
H         0.88524589531714    6.32159388135904    4.71214229481098
C         3.10870312577016    5.17152705137338    5.87440189368117
H         3.67902134744195    6.09591051166467    5.97271697993394
H         3.09766551448057    4.86444689127651    4.82266724637178
H         3.59542944620363    4.39144214399783    6.45831746839978
N         0.93983115103042    5.14031249641243    1.28551505953734
C         2.21153970659115    5.34136445946675    1.94804367815754
H         2.80756079687267    6.02782644058922    1.34212987245878
H         2.72920182062032    4.38743895265586    2.01857267839747
H         2.10568117716788    5.75991288415414    2.95346673204639
C         0.12846323034799    6.34324442117717    1.25405853867006
H         0.68555365223860    7.13235234965599    0.74694137791341
H        -0.13730837235885    6.69395301222176    2.26141736315408
H        -0.78800490265337    6.14448032139672    0.70112316151692
N        -0.78210977318843    3.37567318870834   -0.50741697045896
C         0.15819946453609    4.06561793293581   -1.35319520991976
H        -0.37322249120708    4.76825259201935   -2.00052913007104
H         0.69335098447339    3.35124233192278   -1.98885030410183
H         0.87399621569634    4.60420983127292   -0.73850255466232
C        -1.83370847298299    2.69884037826161   -1.21508329979552
H        -2.51581475516051    2.23015589535183   -0.51387201980667
H        -1.42826638581195    1.92874647527205   -1.87951180226567
H        -2.37461583960659    3.42731074811740   -1.82764215853019
N        -3.17456306128956   -1.22074560750912    0.04823129293000
C        -2.23132872003870   -0.83433744213400   -0.96826731436976
H        -2.75132731387574   -0.30916588302817   -1.77425506620027
H        -1.74944557008896   -1.72289989476268   -1.39357998955648
H        -1.47723296357027   -0.18241967772412   -0.54147089453711
C        -4.15532685324272   -2.17869738848390   -0.39288070303094
H        -4.76076679361697   -1.73140260004440   -1.18602695272228
H        -4.78841392214614   -2.46466155455755    0.44168697408001
H        -3.67341000486562   -3.07646318931358   -0.79640698319878
N        -4.29050407668309   -2.80382841766684    2.46629027630783
C        -3.58313955053910   -4.06108718385573    2.62750315583257
H        -4.28282300649666   -4.88137439725163    2.46264708780234
H        -3.13217416208856   -4.17433837609147    3.62131424935613
H        -2.79203794450386   -4.11524192267929    1.88124953793106
C        -5.42018716758800   -2.66770195418779    3.36776497022807
H        -5.94612157044916   -1.74415040284850    3.12651219972134
H        -5.12972004409747   -2.64026718357606    4.42241003395647
H        -6.09487044266723   -3.50888089322380    3.20275298092247

