63
CSD_code = NUHCOI | q = 0 | S = 0 | Stoichiometry = C21H29B9MoO2S | MND = 11
Mo        4.33815891659634    8.61917811448209    2.11661921726462
S         3.71162379930271    8.18381825590266    5.93583879865586
C         5.44587606632457    7.45092411688159    3.66328664166565
C         3.29628220393131    5.45217524917729    1.20052795353038
B         3.93122465691972    7.36803871882018    4.14553344256379
B         2.55039920207628    7.30800623203236    3.07258831117673
H         1.55336201035559    7.80112239522179    3.49263167738928
B         5.66226145503474    6.65215589221468    2.32564006755572
H         6.79213237200296    6.44056979509048    2.02637592997730
B         3.22751774785069    5.77255802772063    3.88676814681551
H         2.73630741354114    5.15140252428239    4.77011794952711
B         4.94103802205844    5.85273615972441    3.87895735939701
H         5.57224195973875    5.24300812810458    4.66639180318627
B         2.79801603495721    7.05326241704215    1.35251814534714
H         2.05629443536855    7.38054826792045    0.49320354783450
B         4.52184511096536    6.47193765663676    1.03825323200979
H         5.03562682177053    6.32513975455818   -0.02493838103007
B         4.36679060867334    5.08729848821350    2.39999335618864
H         4.73846865972953    3.97099614673949    2.33668942506611
B         2.28863707602059    5.68687122294479    2.42183928826773
H         1.26292504654073    5.11155209390241    2.40760158420002
C         6.55566452250560    7.95573688401712    4.49713931693123
C         7.70749342462976    7.18992104622488    4.70275978299072
H         7.79283322359600    6.22470382009879    4.22705284318068
C         8.74088241798947    7.64638116262964    5.49829401417915
H         9.62051500881156    7.03353707004962    5.63390957675236
C         8.65523004916420    8.88100216665239    6.12037491942485
H         9.46269994113420    9.23683058043055    6.74242548203223
C         7.52576350996419    9.65711938727054    5.92427074416768
H         7.44837112741535   10.62831508882944    6.39065325510878
C         6.49292418173080    9.20280799724498    5.12506008288948
H         5.63847983022139    9.84307750615735    4.96289659253056
C         2.94681159304977    4.55898672558619    0.07698898608714
C         1.67225087647786    4.58386490199957   -0.48742300066406
H         0.93313275455591    5.26378596958005   -0.09257292537240
C         1.34622927531764    3.75855824101317   -1.54724128377635
H         0.35293057372058    3.79769349439106   -1.97136454274205
C         2.28450453091022    2.88216716629000   -2.06568376273759
H         2.02895476893874    2.23476347297265   -2.89176969705384
C         3.55517999248791    2.84609202006742   -1.51693570913642
H         4.29660262079210    2.16854509731670   -1.91660461997666
C         3.88279572454421    3.67708911994770   -0.46208603747604
H         4.88052768007507    3.64460645723712   -0.04934884501093
C         2.99233906285684    9.72390314947727    1.30075935261774
O         2.18593249596572   10.43169808873961    0.86696932439814
O         3.89978878117200   11.24612376446164    3.65353729504744
C         4.09961846201137   10.23320081641828    3.12399050962205
C         6.27214361301575    9.94574326919834    1.91109004237816
H         6.05854267290051   11.01070139748690    1.89399205075524
H         7.17074109660221    9.70085279899871    2.46754341269583
C         5.99630753188077    9.19527415690062    0.75845218319345
H         6.65612167967797    8.40371562975069    0.41770081859624
C         4.82077915321790    9.54313510658927    0.03457112614936
H         4.60318791922245    8.95870819190105   -0.85568273468259
H         4.64496697738792   10.60808268942521   -0.11444475810415
C         4.48032453213427    6.93394308022390    7.01583960002150
H         5.55133821463231    6.97150314635878    6.84438513475121
H         4.09660569999819    5.94954585095686    6.77078109567441
H         4.26685345575053    7.18846023798247    8.04897520599346
C         1.97429004094721    7.83910000260011    6.34255049868447
H         1.36867189534607    8.55384416654481    5.79589719712395
H         1.83570591501182    7.98231952397986    7.40946333297968
H         1.71233355247677    6.82965989838618    6.04379664318742

