46
CSD_code = NUHCAU | q = 0 | S = 0 | Stoichiometry = C12H27Cl2N3STi | MND = 6
Ti        0.40739235266698    4.30793806661281   10.95072265841434
N         1.93465741839543    4.57286056420046   10.31817255269315
N         1.14382074811998    2.56502582280050   12.16115957037849
N        -1.56072651277423    3.24563335142031   11.73164026377774
S         0.10356908350594    2.32372929981623    9.17859246182039
C        -2.09934440157913    2.11940228287940   10.96776285171511
C        -1.69214032500178    2.16067677892898    9.49792145863396
C         0.86613897876557    1.00388666853544   10.20252462568737
C         1.78352658785452    1.59003407050074   11.27422371930295
C         0.11874221686186    1.95702512078868   13.01838734560369
C        -1.12235323394208    2.85294861490167   13.07136604671088
C         2.82979776919735    5.27590303926134    9.49430824396243
C         2.58656768607135    6.78864898152886    9.69011687196853
C         4.29318601699484    4.94060990320113    9.85555325522106
C         2.56170859448897    4.89599386723039    8.02118369239343
C         2.17653026433298    3.18848548791449   12.99569025738463
C        -2.56720162832888    4.30171621582876   11.84423056089568
Cl        0.32484992286910    5.81056277378575   12.63542775412104
Cl       -0.86367466633699    5.40933824840709    9.46001641326912
H        -3.20023765320200    2.11370956871214   11.00593694172141
H        -1.77169731834781    1.17161114320184   11.40569804067988
H        -2.08825368808253    3.05518414988844    9.01008791923220
H        -2.05204885782623    1.27006874147896    8.97925391431199
H         0.07069150733314    0.37810583047299   10.60331574331394
H         1.46594616976310    0.39483570302432    9.52436150947505
H         2.22004651450394    0.76019552953090   11.85962368641163
H         2.58865406982291    2.12516829980454   10.75780177651892
H         0.49656813903972    1.81768248658103   14.04022013461278
H        -0.14032641126549    0.96134008110802   12.64475627923428
H        -0.86527051142248    3.77314185586240   13.60812055886153
H        -1.92651608065675    2.33712215161070   13.62577954064219
H         3.25521402664322    7.37659953863716    9.06524818075729
H         2.74508810630659    7.04766640144271   10.73758352084273
H         1.55154105817275    7.01699186793612    9.43197321233313
H         4.97656100522249    5.48736614573638    9.21090654358085
H         4.48954515023455    5.21528459024416   10.89081853635442
H         4.47378729735260    3.87308263731571    9.73379593415710
H         3.18628169102845    5.48356778142640    7.35272334733244
H         1.51158344568250    5.08041664269441    7.79474524076107
H         2.76586937045488    3.83653612289750    7.86838502956004
H         1.71241997395303    3.90022279617433   13.67973178011608
H         2.72807985397992    2.42834820572051   13.56914104403735
H         2.86145640990830    3.74511265571441   12.35223834407323
H        -2.12637006361284    5.18078678333443   12.31769390427271
H        -3.42754285837172    3.96546307417148   12.44289519847787
H        -2.91151721878212    4.59057005672090   10.85176353441314

