71
CSD_code = NUHLUX | q = 0 | S = 0 | Stoichiometry = C36H28Br2F2NiP2 | MND = 4
Br        5.16506501283804    4.41859969413572    4.38409979180249
Br        4.96866414376658    1.94812080999906    2.17355395387145
Ni        3.62323523340514    2.98125984673742    3.63269315909204
P         2.19991220105344    3.88344737861803    4.95397736798361
P         2.02239671846810    1.71024983899174    2.99341465194146
F        -3.63921218179079    0.77596612909200    8.78431050203672
F        -3.79342593610598   -1.26079169156140    6.96557928049482
C        -0.15258071517694    2.87661386303355    6.21994299468420
C         0.77021264386090    2.75444856360670    5.20245826381602
C         0.68414143848003    1.70305770061354    4.25436957428033
C        -0.32407316805966    0.76451493620568    4.31873898106997
C        -2.10811186914322   -0.26874982330599    5.67436079164853
C        -2.91946834133888   -0.26132412117871    6.77164340496774
C        -2.83928077084680    0.78485681938017    7.70704303417189
C        -1.94698986734344    1.80197518162394    7.52919057607305
C        -1.09079019913153    1.82471241630266    6.40682926235801
C        -1.17474168900543    0.76819832793626    5.45818603473034
C        -0.20884473782402    4.08342949778028    7.10436953719543
C        -0.56241977825749   -0.22630463991660    3.22200147609215
C         2.76117155645656    4.22745475943385    6.64915000140505
C         3.06605419124825    3.11397785608224    7.42737476826662
C         3.56459900802464    3.27644572760334    8.70503838667532
C         3.77192809614209    4.55137732463120    9.20650200710861
C         3.48040497722139    5.65991197360851    8.42898257857774
C         2.97902884712709    5.50484784472109    7.14951489388893
C         1.45922656553279    5.39811571041445    4.27223545394628
C         2.27695024584273    6.49212126078797    3.99155027629219
C         1.74107430443057    7.62123641912339    3.39966572205170
C         0.39731357059875    7.66419197648221    3.06629564198309
C        -0.41360140736661    6.57146855656835    3.32582154908732
C         0.11165584420252    5.44097873060811    3.92271718191713
C         1.21279752453975    2.31451835881928    1.48164521504981
C         1.95371256862097    2.40518251958390    0.30372912110955
C         1.37886052298894    2.93974242011196   -0.83445459010010
C         0.07450805380426    3.40551915825063   -0.80501219709175
C        -0.65779695050692    3.33425091921899    0.36843945374029
C        -0.09429141666464    2.79397555336203    1.50928214598031
C         2.40829116349523   -0.05288188406585    2.77204842606765
C         2.76991454118086   -0.74568890054141    3.92419387121870
C         3.14482414163042   -2.07263774599938    3.84636595935037
C         3.17134217600212   -2.70990251698935    2.61627789707528
C         2.82308714982888   -2.01865588214984    1.46777018972262
C         2.44460383529250   -0.69045149036308    1.53840497548379
H         0.35152814588754    4.90735410579495    6.67102362425110
H         0.20608017901927    3.86801354983754    8.08939796573584
H        -1.24055788728469    4.40827434560443    7.22849828583398
H        -1.62656016991259   -0.28965581786925    3.00057438355074
H        -0.20926784272652   -1.21833687883863    3.50493844957068
H        -0.04835430790771    0.07251355882120    2.31264061597599
H        -2.17989044563892   -1.09829248499465    4.99132422546208
H        -1.89513201347690    2.57339300424489    8.27892890445882
H         2.91539308128955    2.11960017080020    7.02230651584035
H         3.80073950955050    2.41051343440555    9.30568862749940
H         4.16926274720275    4.67987500959986   10.20196537042857
H         3.65134658468750    6.65261626689475    8.81725190436444
H         2.75929524287448    6.37270730615194    6.54480480992539
H         3.33369492627959    6.45478810157563    4.21758004696497
H         2.38084733596588    8.46484922523633    3.18881784218682
H        -0.01685152516094    8.54395541505758    2.59704072851373
H        -1.46030680009015    6.59668559462398    3.06001682447841
H        -0.52986429181828    4.59397144305491    4.12201461301443
H         2.98351578567430    2.07599861806511    0.28191955320140
H         1.95823991879048    3.00256882647753   -1.74309161924907
H        -0.36869407284317    3.83104035186348   -1.69284713683656
H        -1.67239297551658    3.70377629011057    0.39833902215502
H        -0.67478939074074    2.74090001748524    2.41971074847311
H         2.76149365322683   -0.23551145341031    4.88091672079849
H         3.42606575227031   -2.60676461419773    4.74181362591858
H         3.47317162124963   -3.74436703147993    2.55261762527019
H         2.85351055566420   -2.51330700126960    0.50870866198482
H         2.17842943595503   -0.15453873108160    0.63889749310955

