47
CSD_code = NUHPUD | q = 0 | S = 0 | Stoichiometry = C21H19ClNO4V | MND = 5
V         7.19397615182325   10.48986947603930    6.46669006914467
Cl        9.26160640043508   12.09496292038329    0.11880766659337
O         8.04568002984147    9.54436128941385    5.18651903316069
O         5.59837828130798   11.16137400913937    6.76244361652022
O         7.02634734379732    9.16547993376781    7.36252533567961
O         8.19268259367558   11.47751508649312    7.06884682549893
N         7.01762823130826   11.77952976432583    4.78187929480247
C         7.81632171489421   11.34560710965084    3.75353363573000
C         8.40023610690896   10.08918987916906    4.06296585202146
C         9.28237615727003    9.50201070855064    3.14498596810182
H         9.73896391755492    8.55454888758496    3.38726602992436
C         9.54176562056673   10.12661898140628    1.94377152890856
H        10.21140613343306    9.67503043219948    1.22865841506870
C         8.93193982869924   11.34126999679956    1.64155981403495
C         8.07158537110879   11.95998492398723    2.52632843027802
H         7.61228135595447   12.89871024468990    2.25656879464765
C         6.48227433090276   12.95731913231681    4.83726014129647
H         6.68817247071675   13.66790024192018    4.03667429737589
C         5.60636976010324   13.36280297539960    5.88013561004563
C         5.16545683700713   12.38223212159129    6.79954498313459
C         4.18755085656964   12.72673912336735    7.77357041282366
H         3.85734626844676   11.94518977777338    8.44332158427378
C         3.69579189053748   13.99009239562451    7.85349899685251
H         2.95493567919882   14.24120327935756    8.59926846637338
C         4.14122081170501   15.01049497549300    6.97708695985217
C         3.63738669641238   16.31917174911702    7.08943683782142
H         2.89983670684340   16.52404873472390    7.85198939654254
C         4.07277605559106   17.31510828991941    6.25745999946760
H         3.68291064496922   18.31765019229672    6.34792109215635
C         5.03831901742448   17.02806666800531    5.28873263594612
H         5.39242848415163   17.81615898501851    4.64071210355245
C         5.54287865755411   15.75935018057064    5.15628453078729
H         6.30004679691812   15.58442927639969    4.40888258469085
C         5.10746148199401   14.70693839904814    5.98307440789665
C         7.11655125333787    8.38559822227644    8.47678492175825
H         8.18231075836647    8.23475809144363    8.72389838477847
H         6.64921611843724    7.40416123866205    8.28454492205939
C         6.40648792029418    9.08425213645807    9.65128310175248
H         6.30088889384038    8.37673842964910   10.47679847219779
H         5.40849584234448    9.37378865705058    9.30655465670771
C         7.16951037354662   10.32765451040252   10.10591032999079
H         7.37915807112824   10.95601254653077    9.23034991691141
H         8.12305852383669   10.02248874217767   10.54449196451918
C         6.37435745854688   11.13094752919124   11.12872604682919
H         5.44017119367355   11.48134923038540   10.69540388877370
H         6.94345361745551   11.99774122746181   11.45384106003000
H         6.14390128956621   10.52234929676396   12.00170698268500

