104
CSD_code = NUHPIP | q = 0 | S = 0 | Stoichiometry = C54H45AgAs3I | MND = 4
I        -3.23797032467435    3.22617849839493    2.28413096299784
Ag       -0.75519537852875    2.68190797201235    3.07361849691455
As       -0.65862645495106    4.66954286081385    5.32560159880954
C        -2.14322249534994    4.85306830387026    6.58020139333428
C        -3.20100531481436    3.95678699627206    6.50448635017707
C        -4.27166947161603    4.05799340860806    7.37653978888755
C        -4.29234427171788    5.06360671878182    8.32804551953581
C        -3.24557150053754    5.96926698818482    8.40230101972019
C        -2.17673852051187    5.86548527113786    7.53129148833437
C        -0.61212703652482    6.53539388524318    4.73869226937414
C        -1.39873548679614    6.85416545701401    3.63514706572163
C        -1.44374171402067    8.15035462004982    3.15454639780093
C        -0.69737693239818    9.14214999295027    3.77033375307630
C         0.08721897486079    8.83343794526337    4.86866565130670
C         0.12878468410841    7.53669188999528    5.35213701349330
C         0.83617044269066    4.67909631552819    6.57261279413084
C         2.09822151359845    5.04819380485214    6.11513330622853
C         3.19246557609869    5.02211491389955    6.95894824338704
C         3.04273883237386    4.60785850952219    8.27227102707974
C         1.79828230516692    4.21099003220044    8.73020182042860
C         0.70378323700700    4.24243945771175    7.88424541613925
As       -1.84166531137055    0.71399906842736    4.93309024464385
C        -3.58559461231286   -0.14829477621974    5.16147848001073
C        -4.74800361237608    0.57786866270432    4.93144592163011
C        -5.98656125144256   -0.02714669743534    5.06824430443063
C        -6.07291395944650   -1.35708039765290    5.44171176804956
C        -4.91741166405832   -2.08535952689761    5.67532595458257
C        -3.68085229843868   -1.48316063498651    5.53516058016768
C        -1.17010553428981   -0.40623320677533    3.49326539990065
C         0.18762105117837   -0.68217996587327    3.35585137291951
C         0.65125308702428   -1.42106597039412    2.28037509999923
C        -0.23038094311940   -1.85178061342127    1.30335159998253
C        -1.57721258418514   -1.54583923285721    1.40758787368522
C        -2.04371990328204   -0.83229251937755    2.49681290286717
C        -0.97430698081364   -0.07144861847688    6.50212941859765
C        -1.01696936148774    0.70294360242334    7.65867998737384
C        -0.44288931948037    0.25480137886697    8.83391045232293
C         0.19090513485520   -0.97749065681871    8.86342022304429
C         0.24311697549729   -1.75355168092116    7.71813618140477
C        -0.33735576715809   -1.30373452687369    6.54420980011648
As        1.76389950116405    2.36957038883753    2.87442885645007
C         2.55475292279970    4.02274816347146    2.23147870887501
C         1.84001323964124    5.20162471757462    2.40499668135982
C         2.37263362892002    6.41826058222649    2.01982478767341
C         3.62913437587562    6.46128492308532    1.43904375020472
C         4.33847717613882    5.28872323928154    1.23481201257295
C         3.80362439809854    4.07541905337608    1.62848327039045
C         2.67415909679143    1.10489300276043    1.72443698155077
C         2.24272125015701    1.04408809201704    0.40382628474976
C         2.82969383001734    0.16678409036281   -0.48780081195001
C         3.85165578568778   -0.66621373944250   -0.06125501377559
C         4.27705096409583   -0.62166981543256    1.25557076276769
C         3.68662877790761    0.25770653504169    2.14715904795129
C         2.68062821407465    2.15938637995098    4.57063346307033
C         1.95057801036017    1.74840517740298    5.67752206003071
C         2.57315412658186    1.51258023323189    6.88938649731246
C         3.93837378582407    1.70646166960975    7.00532923276418
C         4.67087382064785    2.15203263214803    5.91683759173942
C         4.04462010733659    2.37693333132268    4.70532219700366
H        -3.18037112320932    3.17809487181844    5.74231129111957
H        -5.08828889003487    3.35412552236018    7.30926947336237
H        -5.12574107460768    5.14726301914711    9.01018098246291
H        -3.26496570946675    6.75901092730303    9.14017380267068
H        -1.36001230140589    6.57695634563213    7.58805680798712
H        -1.97731464356547    6.07017922041273    3.15278381468400
H        -2.05862043843614    8.38469597563267    2.29820211070644
H        -0.72573045641669   10.15489795545838    3.39518419978894
H         0.66973608455131    9.60526688406412    5.35248879044761
H         0.75163146365192    7.30514251471308    6.20976682309942
H         2.21802741551008    5.37139788123123    5.08399592213143
H         4.16375828403200    5.32432642024897    6.59291613843702
H         3.89610094336842    4.59094685966562    8.93433242215866
H         1.68027030382022    3.87752411294375    9.75164216505822
H        -0.26919269323583    3.92942259838244    8.24631689826868
H        -4.68293235583804    1.61462869101050    4.62193582874836
H        -6.88383410659132    0.54266121483984    4.87740617349567
H        -7.03832849298062   -1.82987705182728    5.54879840705211
H        -4.98086915031150   -3.12503295830633    5.96492065917932
H        -2.77909429286652   -2.05758668788010    5.71824585371832
H         0.89153499392830   -0.33971998671843    4.11427857686228
H         1.70261277911571   -1.66237134011768    2.20359273807909
H         0.13660365607432   -2.41983408510354    0.46096344306377
H        -2.26662307290232   -1.86448664512076    0.63945373353430
H        -3.09910962047418   -0.59402393549979    2.57859813325866
H        -1.51109843990326    1.67219822651272    7.61764219780583
H        -0.48431495544219    0.86413825773413    9.72593075804147
H         0.64581036335809   -1.33151597066274    9.77721805528735
H         0.73727039886219   -2.71491718807315    7.73972941356076
H        -0.28769535077808   -1.91945047659943    5.65251106432419
H         0.84169613137843    5.16706782856774    2.84342153860265
H         1.80381463245269    7.32452435791229    2.17142234843582
H         4.05245286642519    7.40708925472762    1.13454810730662
H         5.31206441486615    5.31968108299373    0.76588889166791
H         4.35702744790298    3.15916847687221    1.44802370123408
H         1.43481877901990    1.69598708913571    0.07660582824206
H         2.48971953255450    0.12836514974054   -1.51258311907839
H         4.31284024195682   -1.35477649812055   -0.75406771085308
H         5.06839485152950   -1.27714066208102    1.59224004873506
H         4.01237748057297    0.27626604103517    3.18203161458173
H         0.87118932074262    1.61611821736174    5.59399084942032
H         1.99125452821177    1.17892425093796    7.73587940930279
H         4.43249752992552    1.51932062860435    7.94723544297387
H         5.73454394453497    2.32040549838132    6.01216521813687
H         4.62112195925094    2.73304192408149    3.85867584976580

