75
CSD_code = NUHPUC | q = 1 | S = 0 | Stoichiometry = C22H26N6O20Y(1+) | MND = 9
Y         1.07947412213452    6.45499017587347    9.08898215157862
O         0.81889864051316    8.21855788452327    7.31695543274190
H         1.08336166635278    9.07939898976695    7.67876953122194
O        -0.88742437529619    6.09140907753430    7.58638976784058
O         0.67854706817627    4.08384494392942    8.58658789073407
O         2.24145497298475    4.93597423848349   10.53172216154805
O         1.62971742612359    7.35352247957972   11.68326459647211
O         2.41672618086150    8.72747115768431    9.49154577638853
H         3.33429571211717    8.37784372598393    9.56136966823187
O         3.22464652696305    6.43370450910238    8.51906724772024
O         4.93199784866112    7.64447981041378    9.96907847951655
O         6.97068909313351    7.30969365535787    9.39016810297982
O         7.92664690110791    7.75491805955317    4.69566824236820
O         6.43746541991845    7.16653119385209    3.25554245278014
O         1.96172350409756    6.30174366315703    4.71685187695351
O         1.63184051741565    5.70168281172991    6.74467691167062
O        -0.47274442900213    5.76262699923246   10.50296432899559
O        -0.37349110917755    8.16759502174650    9.72559057166643
O        -1.03405742107860    9.70886155172046   11.05072815245833
O        -4.21341017766850    8.75345098014962   14.46092043547114
O        -4.38792775660569    6.74224686182433   15.21079286280434
O        -2.27316596240571    3.13023494944105   12.77510513108604
O        -0.33512019590119    3.64866428423377   12.00570912586390
N         2.35541093880431    6.16140528409314    5.85037066681906
N         6.82806223374303    7.37598568321915    4.37668456292766
N         5.79699759975437    7.37527240138251    9.13940685657731
N        -1.45414123066489    3.92698496483437   12.39342272038819
N        -0.97358139623475    8.53546410895780   10.76101605845891
N        -3.95449925799780    7.57557032559447   14.45562378651206
C        -0.52720349126726    8.35562313634044    6.84298796583670
H        -0.54529734629222    8.99392010678476    5.95160444816825
H        -1.15826805360651    8.79382444981162    7.62230453013509
C        -1.04391475414769    6.97186764579111    6.47059295541150
H        -2.10293858379319    7.03532397179137    6.18976870066286
H        -0.47114140816814    6.58981217367513    5.61589392805103
C        -1.13470099515667    4.74232775060675    7.18916987395110
H        -2.20565336361176    4.60307665904423    6.99138989916604
H        -0.56563067132789    4.52618472156760    6.27665035198701
C        -0.68044005910954    3.78756731940174    8.28531095163554
H        -0.77173062629738    2.75707352121390    7.91910548532293
H        -1.29603736186608    3.90686765931042    9.18540163224467
C         1.27496955023879    3.09878310892109    9.42912602792859
H         0.62074320416507    2.89817306641092   10.28558232470566
H         1.45307048290561    2.17535550501842    8.86368350401872
C         2.58416731051077    3.68491436981072    9.94808766272752
H         3.29680328781310    3.83713915232214    9.12551174925627
H         3.01823622231797    3.01062771820673   10.69304463610275
C         3.00466853297707    5.35205156161231   11.65981529083867
H         3.89523846191632    5.90613770515017   11.33300781585213
H         3.30339394586298    4.49108522880567   12.26636889309673
C         2.06389441403772    6.24721342857620   12.46767559712171
H         1.17005531139928    5.66410042570001   12.70629313095398
H         2.53526640781237    6.58736125470317   13.39361763033383
C         2.43446471793865    8.52293781999651   11.88915126335297
H         2.13979100167077    9.01358753170487   12.82463177243478
H         3.49169909206392    8.24026739778264   11.93839357536718
C         2.23401755130488    9.45838428548708   10.69925904626984
H         2.95680405007206   10.27940924353941   10.76154724977928
H         1.22922285517573    9.88359495477081   10.68060144473105
C         4.01651883030062    6.68514477663194    7.56858471326418
C         5.36653276404200    7.13989793134028    7.79584931158724
C         6.27206795757974    7.33132353836281    6.77432558295000
H         7.28671172668276    7.63982954749436    6.99508628439026
C         5.87485260115598    7.15015517232250    5.45315564466146
C         4.57788453270541    6.77167418070873    5.15477019786637
H         4.27226035265476    6.65123861192954    4.12292838729844
C         3.67504626539264    6.52924896624596    6.17935619077556
C        -1.21798738838436    6.19456455796894   11.41876172410875
C        -1.81345894664802    5.32257001670902   12.40525063542997
C        -2.70674532805677    5.75795227757593   13.35129570429323
H        -3.15567002579806    5.05673340620871   14.04426034829298
C        -3.02265682255818    7.11655626501099   13.43752906030313
C        -2.44034086766994    8.02387487738450   12.57932568793506
H        -2.66940925617462    9.07840371739241   12.66776196163236
C        -1.57094914173570    7.58280948982971   11.58350367694160

