69
CSD_code = NUJCIG | q = 1 | S = 0 | Stoichiometry = C30H29ClN8Rh(1+) | MND = 8
C         5.25218997766592    6.33549468897466   16.06780377933370
H         4.61610074815953    6.44517016212125   16.93075428500658
Rh        7.83819035989860    8.91958735098263   13.77428446064961
Cl        5.83800578781304    9.58100474942623   12.85163730610258
N         6.73736891104056    7.34767936104078   14.51336141174864
N         8.59361834315112    7.28595862718003   11.04232298472750
N         8.02167416538627    7.44829572095424   12.23149516019197
N         9.90369975110261    8.04142367778592    9.29454608989555
C         5.94153473304446    7.42907422180016   15.57464895758660
H         5.83720744388127    8.40409177050330   16.03259573951939
C         7.61461274955917    6.23936884288535   12.63673078710578
C         8.59258016688393    5.98234654354155   10.68036286519888
H         9.02318371489092    5.67333043540839    9.74973128271129
C         8.39233901370856    9.58825880089772   10.30865669472272
H         7.61420586783392    9.83579278053230   11.01538493648293
C         8.98221356052334    8.34486226665725   10.20725655204598
C         7.96691517733679    5.27537960872889   11.67468388762919
H         7.78710213321750    4.22164376315270   11.70575555312451
C         6.19101903724584    5.03086576807585   14.30581633977405
H         6.30286634438334    4.10726653871524   13.76232055192566
C         8.57421951809217   10.98398839755725   14.09117583350212
C         6.84640881804089    6.17644742344184   13.86060677184027
C         9.63351102183102   10.20387668836271   13.56111225908980
C         9.04398490298999    9.26283311253684   15.59958338127909
C         5.39184309814843    5.10945126878278   15.43102803723977
H         4.87207690362414    4.23762648720168   15.79561870745012
N         8.32378956543108   11.79510149532720    9.37126055988369
N         7.43536649442914   12.16832560099729   10.30746822155164
N         9.76741826629112   10.23551182834459    8.45793575720070
C        10.24439000955200    9.00937903342858    8.46449700550937
H        10.98983344386559    8.77040248375554    7.71940986396773
C         8.84298692422551   10.53117271946109    9.36950533963353
C         9.91872388460389    9.12746127044457   14.49242647815990
C         8.07803806265850   12.27483606179850   13.54037288683191
H         8.84487986416067   13.03818244302950   13.67857435625309
H         7.17362819648174   12.59490222132685   14.04823488823867
H         7.86340581507209   12.19837942972211   12.47384632190888
C         6.11443960359262   14.15158217104253   10.79146804686738
C         5.29703999114341   13.51190491173573   11.72586186901677
H         5.38105104582912   12.44707846789928   11.87346396320922
C         8.56088286424213   12.80451445601810    8.47309534947344
H         9.24652188417778   12.65869351139236    7.66469419120468
C         7.09026621337614   13.40611145493965   10.01420230412075
C         8.14193149019278   10.35920629892200   15.32089021076557
C         7.78874767118317   13.85614140514961    8.85384908882789
H         7.69426525622869   14.82141162433184    8.40501358842547
C        10.52751660820419   10.60888617670882   12.43649908316233
H        11.40261898079159   11.10633199689567   12.85940614022304
H        10.02902006353083   11.30988613188300   11.77356368495026
H        10.88112674063576    9.75613668216743   11.86065909697478
C        11.08513330406121    8.20166236286710   14.39118022608107
H        11.32397853495307    7.97768832651150   13.35391598978087
H        10.90243674396655    7.26751400622550   14.91751756670960
H        11.95855845246836    8.67667496525098   14.84084679478214
C         9.10892381677238    8.48229182335115   16.86905541522577
H         9.76836564823194    9.00443308934214   17.56438297674353
H         9.51496639542184    7.48661193007798   16.70582100545175
H         8.13328336136129    8.38826675744863   17.34058060185006
N         6.03937071742496   15.45728806110177   10.54194443554691
C         4.37901173072197   14.27659222002403   12.42365941482744
H         3.72487973224033   13.81743446108698   13.15077110933778
C         5.15982110668722   16.17342472344540   11.21192520241421
H         5.13806301412685   17.22772884410412   10.97038100008270
C         4.30587803980832   15.63749076770695   12.16784532083217
H         3.60214330917445   16.26706000653825   12.68882373158863
C         7.17420836032490   10.97498803082605   16.28067697031372
H         6.98345322091695   10.32500936298595   17.13075745144624
H         6.23014583708139   11.20569699864571   15.78940048499504
H         7.59261748492367   11.90938432844168   16.65674138974278

