83
CSD_code = NUJMIQ | q = 0 | S = 0 | Stoichiometry = C32H46N2NiP2 | MND = 4
Ni       -2.25539623150215    1.98944115889626   12.05243463758888
P        -1.26207912096402    4.72550557547605   11.84190905691365
P        -2.41772898014362    0.14390391085378   13.09735949420826
C        -2.09467541833817    5.16869874832511   13.36341967261794
C        -2.46137127794496    6.45797814088154   13.72970009388866
H        -2.18401297033577    7.29279146440000   13.10060544919413
C        -3.14968431558176    6.69937482829219   14.90382748347004
C        -3.48516544909222    5.60545940364312   15.70531012448697
H        -4.05166570404892    5.77320752410043   16.61134936061071
C        -3.10679697058403    4.32910051885166   15.37298599237209
H        -3.37717530056379    3.50370715809108   16.01722755221932
C        -2.37177259690885    4.06477334351605   14.19946723835786
C        -1.66310700557541    0.56732590150789   14.68415267405366
C        -1.21070000509102   -0.32037790435753   15.64872495608934
H        -1.29975837209142   -1.38586966614256   15.48637238416119
C        -0.64198507382799    0.13496321599157   16.82744183521856
C        -0.51681069507975    1.51199972077863   17.00606056912523
H        -0.05179155439484    1.88467282864487   17.90891688329792
C        -0.95841939878692    2.40742139133868   16.06006436623186
H        -0.82407432997868    3.46835053462751   16.22285182926669
C        -1.55921512225692    1.96353733996699   14.86792388395056
C        -3.54640990196131    8.08787785671679   15.30935114294310
H        -3.10949664064180    8.82784971341152   14.64219435423634
H        -3.21837514447213    8.29918444360818   16.32674893192668
H        -4.63114091248845    8.19725608843672   15.28062480740491
C        -0.14236949407224   -0.81942673931456   17.87208237116068
H        -0.54899719308852   -1.81621371805857   17.71381165924948
H        -0.42298690860416   -0.48127489826536   18.86879157132467
H         0.94659780540685   -0.88644965152349   17.83761568129994
C         0.43651214679196    4.15161326772402   12.42763767064149
H         0.22940998245089    3.79028066826972   13.44330153055913
C         1.47343943616211    5.26050300494909   12.54149931285385
H         2.34063269475452    4.89337244476647   13.08937606372729
H         1.06112980133048    6.10712114306367   13.08886031971392
H         1.81631056734106    5.60768583652555   11.56982067911851
C         0.88428267064500    2.95256379162297   11.60520245614564
H         1.08566125893840    3.22292600894786   10.56910763704755
H         0.07945685278404    2.19917751607008   11.62917270287069
H         1.78105740885807    2.50443211996775   12.03019478797409
C        -1.07365056006009    6.21461229045904   10.74702249533562
H        -0.58226961018491    7.00835240311052   11.31747241579579
C        -2.47082342580857    6.65515776295842   10.31923330056843
H        -2.41775589853937    7.57656487151917    9.74041340293454
H        -3.11924685506578    6.81742237146897   11.17679995655993
H        -2.93110052196625    5.88641949443902    9.70114790040745
C        -0.23901837785959    5.87899982395405    9.51475370362814
H        -0.70969390500058    5.08333222773024    8.93844804416865
H         0.76691312264286    5.56124264073586    9.77614604238545
H        -0.16056901515532    6.75458915322787    8.87104509247861
C        -4.20467117026337   -0.19875839027950   13.49978207277969
H        -4.65651081401943   -0.56014686141475   12.56796082523054
C        -4.83827601803800    1.14264942194092   13.86451013100972
H        -5.92456086611250    1.06925073880073   13.89613254929170
H        -4.55666984483517    1.90500726191347   13.12681940822152
H        -4.48629948047685    1.47176962495679   14.84083761402917
C        -4.40550594586529   -1.22858791437862   14.60416004471388
H        -3.89152933014608   -0.91728448228196   15.51207932086768
H        -4.03220687012055   -2.20693394446029   14.30950220089289
H        -5.46685594694132   -1.32606360518987   14.82973751822149
C        -1.70265475858332   -1.51180524638212   12.65864201886617
H        -1.79722847747742   -2.16174696795384   13.53590050776148
C        -0.22457535802740   -1.29989120788934   12.34590083368593
H         0.26443309945455   -2.24681439734611   12.12257182915122
H         0.28234413922844   -0.83609938848365   13.19118887268081
H        -0.12448710813639   -0.64522225402533   11.48204044164978
C        -2.42762179146756   -2.15439363939734   11.48162160293573
H        -2.41939323620924   -1.48953724407063   10.62108094448828
H        -3.46114656387541   -2.38323256192940   11.73102541764444
H        -1.93248354628221   -3.08405199717773   11.20381170228357
C        -2.62799035147977    1.16696953616310   10.39738581735483
C        -3.96763775075550    0.99966644048229   10.03212901686483
H        -4.75759211762558    1.27544053898027   10.72201177362550
C        -4.31684039696892    0.49412817073904    8.79058458740391
H        -5.36091911362862    0.37483845516638    8.53507698154611
C        -3.33788585620752    0.13786028580921    7.87947214844557
H        -3.60983706393603   -0.26299640216699    6.91347675714393
C        -2.00682460983124    0.30251683273393    8.21696490924016
H        -1.23196869789967    0.03255081275263    7.51206659604227
C        -1.65469820624915    0.81106539905467    9.45809805408270
H        -0.59997226087234    0.92914226083429    9.68144389668918
N        -1.94309842986719    2.81101704193359   13.86189383319217
N        -2.17395784321825    3.65890873776970   11.08738700545646
H        -1.98739090325201    3.62174787070622   10.08822119473177

