42
CSD_code = NUJSAN | q = 0 | S = 0 | Stoichiometry = C10H17N5O8SZn | MND = 6
Zn       -3.31710259086464    4.49660208694434   10.11710702865402
N        -2.22508813190642    3.11199654683274   11.04232544842627
N        -0.48746146774807    2.66262195596455   12.29384789523671
N         0.02402550870905    2.26295697977864   14.57795419043173
N        -0.58973531873679    3.05764921399050   15.48021844236516
N        -0.98191008796985    2.38671118549928   16.46919683111384
O        -3.96573762499946    5.79773181478946    8.52538216889701
O        -2.77558818338074    7.47593174773244    9.79852109307741
O        -1.75844230207730    5.33621006845171    9.20143227094507
O        -2.14216026309665    7.03244005451181    7.48795500365806
O        -3.49671189151329    5.78053291319564   11.44188697700473
O        -5.31133144717851    3.76824349764363   10.24522400223618
O        -3.28473192113324    3.25672737435783    8.17254617117792
O        -6.40308839599425    6.11105255709103    9.56377821563824
C        -1.45810036444802    3.54841437885159   12.01065338393566
H        -1.59145920029904    4.48814112503722   12.50773092379485
C        -1.74196689659557    1.89209887082476   10.68145033732493
H        -2.20347749481400    1.32081371828447    9.90256667982529
C        -0.66386559707106    1.59484072355717   11.45613391519470
H        -0.01987608754301    0.74031366154908   11.47327013937996
C         0.50226722031220    2.78949974764410   13.33522783476493
H         1.41153060118966    2.25594192693937   13.03714378907182
H         0.71762337221938    3.85149804802099   13.49018870479528
C         0.00511140038036    0.97425973847293   15.03354759436168
C         0.48043884969359   -0.23715290961005   14.55060313585327
H         0.99566241921010   -0.31449006825843   13.60551457895377
C         0.26847211474753   -1.34111124788535   15.34634026152759
H         0.62016032464677   -2.30557972447841   15.01249790912256
C        -0.38990588576989   -1.25348446569006   16.58064906160038
H        -0.52502437927808   -2.15548446139654   17.15773865752108
C        -0.85913249116462   -0.05742786206195   17.07076134021455
H        -1.36108656245011    0.02004789772423   18.02071971399810
C        -0.65649618751871    1.07360518613188   16.28207253068880
S        -2.61739970704846    6.42763661740702    8.68385483512140
H        -4.35875616685411    5.98845228367548   11.80427874639157
H        -5.87620472891458    4.56401072437013   10.07978449824072
H        -3.07540370733088    6.87532147349352   10.63013712952950
H        -5.47703150553003    3.17749321401164    9.50487552494877
H        -6.37874302324069    6.88165212918828   10.13448458141410
H        -3.68072566412200    4.05932696493331    7.79456813849797
H        -5.58890406144613    6.15958968905695    9.02162882755714
H        -2.34684247314343    3.35726462332924    7.98090148741565

