45
CSD_code = NUKFEF | q = 0 | S = 0 | Stoichiometry = C16H18MoN4O5S | MND = 6
S        18.03649497239421   11.94458329988555    4.01717252642391
Mo       19.06377621678778   13.54763946408467    2.50308703669195
O        18.79799744442308   14.92540298557951    1.32624890145067
O        15.47911092937505   13.28188542356498   -2.44697638164573
H        15.08485566195549   14.15764032478966   -2.52259603120409
O        20.12559577084197   12.49970261512587    1.81932788135793
O        19.54733818496107   14.37926762426896    3.83708236630710
O        16.88372310704801   14.92628536112850    3.29895324055964
N        16.20982157197340   10.17414404120741    3.40752815362429
H        16.50714811005940    9.91309251419423    4.33965608856889
N        16.64526762431846   11.69877319386084    1.72294014371089
N        17.38294975430170   12.74224584018104    1.29264066322646
N        19.15138885528738   16.16284055082011   -2.00219667928592
C        16.87379233807744   11.23359361468482    2.90759025916629
C        17.16913327197504   13.04797244885409    0.04823388417827
H        16.43587943548519   12.44897245112551   -0.48868667386568
C        17.82733576941774   14.09986667588719   -0.66324456675204
C        17.67765078545979   14.27301524064075   -2.05939244048195
C        18.35392077299728   15.32135810983455   -2.65242522365256
H        18.27446838738026   15.50073135596344   -3.71647641356097
C        19.30980395635231   16.03453407528381   -0.70471111939025
C        18.64971877814243   15.01539854770347    0.02784505362001
C        20.22554087576471   16.96052309941827    0.02559589177441
H        20.79971600943151   17.54878469909916   -0.68305398504279
H        20.89140251498232   16.37932674557954    0.66845880885709
H        19.64731255778594   17.62677064422110    0.66643521163794
C        16.82036281831044   13.34488257524090   -2.88449345976757
H        16.86740939269423   13.65355963151005   -3.93734894532506
H        17.19932261943321   12.32090368382257   -2.81196316495308
C        15.24217300780329    9.35086424033147    2.83333747524315
C        14.79283013296685    8.26895277626465    3.59122422402327
H        15.20458533740126    8.10075178163139    4.57615049196056
C        13.83073328364308    7.41570941096140    3.08751304098169
H        13.49226087943712    6.58131757832805    3.68318552733197
C        13.30316886106618    7.62816688110312    1.82405875477743
H        12.55185408732451    6.96070761450443    1.43085754600672
C        13.74703283855456    8.70196850825801    1.07090749531278
H        13.34045328452294    8.87409433327462    0.08569211272389
C        14.70932164414970    9.56380076783882    1.56536144012379
H        15.05661217308626   10.39901663396611    0.98302288806351
C        15.81630033468086   14.51889532465573    4.14199554101145
H        15.28264158865076   15.39360847108216    4.52581018025687
H        16.17577886842989   13.91206067773270    4.97830733882444
H        15.13531628723955   13.92391794070877    3.53298727955875
H        17.52379890360719   15.41687022182804    3.83735763755418

