28
CSD_code = NUKHEG | q = 0 | S = 0 | Stoichiometry = C11H10FeO6 | MND = 7
Fe        8.32712857435861    5.91632155462309   11.89577807860613
O        12.12837421016990    6.23472498640811   11.25851615025406
O         7.57812369625274    3.28746702290726   11.03464746972213
O         6.94495836890129    4.85049965150671    9.63224953525732
O         7.94463844292287    8.09065744797571    9.99631906019839
O         5.55308284523627    5.55342991153573   12.69590283381079
O         9.16982186842055    8.00566099549008   13.76061413499936
C        11.57766606960176    5.66863983908603    8.99653919312113
C        11.39112030256169    5.65295126642487   10.49170443577409
C        10.23018116945120    4.86173092757790   10.95723133779874
C        10.07427778190544    4.65066203355121   12.32939819252974
C         8.90580041484415    4.11583582983569   12.92627216382926
C         8.13138534292843    2.96116974191583   12.30687912359191
C         9.01313275430961    1.72259991783832   12.14024931572987
C         7.43715347744694    4.57800356611976   10.69427660154276
C         8.10173636003570    7.22290658296617   10.71442117835157
C         6.64627464893618    5.71137445577392   12.40007211529110
C         8.92156380741226    7.15767166470676   13.04164146119130
H        10.64615918960002    5.94604597580267    8.50803159492175
H        11.85361800026748    4.67141383667071    8.65642134182034
H        12.36317692782977    6.36763297149486    8.72303278980031
H         9.78127087755374    4.21299782674498   10.21344094391342
H        10.83008916688194    5.10260406939484   12.97123966192461
H         8.94132422069515    4.02216221443098   14.00932636555049
H         7.28438479671981    2.70996213993521   12.96300770333533
H         9.36086184505357    1.38604895427642   13.11276884988152
H         9.87319793904486    1.95203862177763   11.51674342798315
H         8.43979690065823    0.92768599322781   11.67147493926947

