36
CSD_code = NUKHIK | q = 0 | S = 0 | Stoichiometry = C13H16FeO6 | MND = 7
Fe        2.35835573683030    5.15109356311664    0.64620969072993
O         4.04967793433383    5.94342737818377    3.28000225522695
O         3.67599894754596    5.48134081582982   -1.87221360770526
O         2.44535660297975    7.21530910008771   -1.33642662200712
C         4.85974895167360    7.95701139146923    2.20627042184658
C         4.99687094917200    6.43864727737271    2.33389747496169
C         4.63209223569227    5.77798622737398    1.02384152366608
C         4.40573025002898    4.41438413612038    0.97282864976599
C         3.76458790836662    3.76520026446237   -0.12586655822193
C         4.07265976188961    4.14718005777160   -1.56644959829510
C         5.56084967308187    4.00469575084147   -1.89028195809251
C         2.79327807229269    6.09705569323220   -1.06033039969736
C         7.50726602242824    6.28036200501022    1.75705554006032
C         6.41762160272075    6.03418302299079    2.79241320549553
C         1.56779062560762    6.57061933839011    1.35475280051205
O         1.00874330930913    7.43429365910146    1.84556766211625
C         1.77083186502766    4.24674296983140    2.06470094959742
O         1.27642128260864    3.71409189261265    2.94490059210929
C         1.17485330148672    4.72792657474677   -0.58887213822194
O         0.42660740337400    4.47786132236626   -1.41946486172940
H         4.13670082524651    6.44480985828661    4.09839063827631
H         5.52383892605385    8.34390615526707    1.43955464031827
H         5.09811272704001    8.44304113453946    3.15139867912034
H         3.83713011637633    8.20536634362116    1.93077675945411
H         4.86944449026088    6.35912681709774    0.14176987931817
H         4.51746512602540    3.85075070209718    1.89603599690265
H         3.67202679071555    2.68566940626008   -0.02594427638948
H         3.50064794236608    3.48726529734503   -2.23662262429245
H         5.86605078854133    2.96948453321957   -1.76580360502928
H         6.15249196723559    4.63111882443937   -1.22819783414469
H         5.74229057609227    4.30991317451910   -2.91710008211991
H         8.46951265674199    5.96889813821834    2.15677942501507
H         7.57475202589264    7.33353245580554    1.49825483868767
H         7.31485457147417    5.71080379285425    0.85141540353014
H         6.65419988416641    6.58553987472819    3.70658911250797
H         6.39293814932073    4.97146105078929    3.04346802672790

