50
CSD_code = NUKNOY | q = 0 | S = 0 | Stoichiometry = C17H23FeN7Se2 | MND = 7
Se        4.57456962709362    4.76586889383881   -0.54871453092715
Se        9.16630502203990    3.85099746901064    6.56001338867878
Fe        6.44560193232975    2.57694304872818    3.05844832269554
C         8.17025063539696    3.08937588194045    5.38102753940945
N         8.06894832133557    4.73824155433488    2.51399198409355
N         6.22126637169891    0.79914632375583    2.97794564761566
N         5.66668739441719    5.00223373812565    3.71784011395344
N         4.78497854464053    2.43451722627510    4.11642936878775
N         5.49202435149071    2.97225794503257    1.52905646574132
N         8.09231938861338    2.05766638744214    1.90731473589390
N         7.49267169322630    2.57286454606071    4.57571969045821
C         4.03696543658930    3.52034776207081    4.69972981506095
H         3.57636985792724    3.22344571973657    5.64799258947238
H         3.23885359965956    3.80527833048321    4.00087820572418
C         4.92807856289377   -1.14400443004380    3.53255828059412
H         4.07000454462643   -1.58392903023755    4.01373539171497
C         9.12271722204284    2.90596530492103    1.36568419481558
H         9.44996301789688    2.55496956367134    0.38052102453241
H         9.98587481865866    2.88171668555923    2.04497509957329
C         8.62532568530058    4.34144743587295    1.24285916663412
H         9.45549883046893    4.98711173130540    0.90634363447597
H         7.82670042331369    4.38828140035807    0.49771268487338
C         7.11878406863769    0.00891939313756    2.33515514253206
C         5.12618219855346    3.69504925781051    0.68091742848985
C         7.47193527942534    6.05541383287780    2.55367497014642
H         6.84165895753891    6.16954586528230    1.66679109651720
H         8.21206093607224    6.87080840421383    2.56161959702475
C         8.20297245275257    0.77397772803099    1.76615131567307
C         6.60181514274896    6.10630270426671    3.80461935864045
H         7.22720931954103    5.95315387403744    4.68877435177208
H         6.10270351312751    7.08346224469077    3.89392048417428
C         9.36332448243006    0.11439597318600    1.08432178697736
H         9.34690168248782   -0.96048434006567    1.22256267960993
H         9.34250487715950    0.32555175293482    0.01458060458340
H        10.29971420416459    0.50030457670747    1.48498052633625
C         5.13496582964064    0.23273754690805    3.57053097468127
C         4.94665461229979    4.71915322092043    4.94032386962541
H         4.34387415423785    5.57388660826779    5.29230006817123
H         5.68079214509788    4.47117101207118    5.71143054832736
C         4.30484391173425    1.22681506964985    4.19635201148672
C         5.83961457395526   -1.95024532259919    2.87200115279976
H         5.69292045806939   -3.01777174186984    2.82887918780548
C         3.00098886863939    0.89050310262870    4.85283423083367
H         2.72553205480218   -0.14195503028244    4.67016325127580
H         3.06604233992757    1.04350490018451    5.93062371292316
H         2.20999324925962    1.53257324246360    4.46760661977463
C         6.94340089791615   -1.37043947059863    2.26612628944044
H         7.65258483660741   -1.99013057848944    1.74262421434293
H         8.76832174892374    4.65740716459635    3.24769032781152
H         5.00952792258653    5.18124552079556    2.96108138435011

