184
CSD_code = NUKXEY | q = 0 | S = 0 | Stoichiometry = C97H81N5Zn | MND = 5
C         1.93229472872588   15.64459668652218    7.25663104113451
C         1.89124410203614   14.20971042914780    7.39979004509501
C         1.12245327455545   13.73764949252818    6.35056470310952
C         0.73865821219786   14.89759455206918    5.58022065599199
C        -0.04084696202510   14.84921625603270    4.42557216653970
C        -0.49269515678909   15.96654903618315    3.72121931412452
C        -1.32717310048856   15.89131593580234    2.55231528187867
H        -1.68505336053679   14.98568076803428    2.10297984856305
C        -1.55775292279362   17.16387271453331    2.15677056628797
H        -2.15404959013583   17.50088047326727    1.33161442848347
C        -0.84170090322469   18.01684327030781    3.06690740386104
C        -0.80398189340734   19.40709005843957    2.95841077945687
C        -0.10672273671362   20.25262287608989    3.81913859365730
C         0.00173013646362   21.68010126321190    3.64268686899194
C         0.74959650414788   22.14550128988399    4.71359184798900
C         1.07830550783469   20.98934938255248    5.50730695162713
C         1.81487163758980   21.04412041754350    6.69002125201758
C         2.22598661833431   19.93240834675117    7.42137159233562
C         2.97973688554670   20.01139006014115    8.64401820835858
H         3.28463979227192   20.92328419360231    9.11995419431499
C         3.20035144106820   18.73851084377289    9.04492375771440
H         3.72665660080119   18.39384335083875    9.91411618430046
C         2.57448865341156   17.88493092874142    8.07099136958663
C         2.57363731592089   16.49534526376883    8.15314062419354
C         3.28232497526475   15.88782100192691    9.30609264355216
C         2.61669275670603   15.67430811956364   10.50762048509038
H         1.57769323872909   15.95747468012637   10.59476812114615
C         3.27187701489075   15.09074457815207   11.57353438916292
H         2.73956759753236   14.91584895581959   12.49790174192317
C         4.60521280476300   14.71255493038161   11.47242709467822
C         5.27108750576365   14.95051342155958   10.27786346506767
H         6.31025788539236   14.66904175251010   10.18146581919898
C         4.62108877490766   15.53303231557626    9.20606249180063
H         5.14827699368709   15.70662767782787    8.27850740625810
C         5.30570322921397   14.09104719240253   12.64527350903240
H         6.20142756099780   13.56813318139397   12.30867663083136
H         4.64546588184365   13.35309880121252   13.10756842344014
C         5.68012954189239   15.14021309887159   13.70148845224902
H         4.76812304223878   15.64914183523921   14.02202941540162
H         6.10249416903967   14.63207526503413   14.57172578844846
C         6.67491864914179   16.18652076787726   13.19879617575805
H         6.30206169455369   16.61741987755436   12.26711318520323
H         6.73347958057019   16.99134001460812   13.93573855162273
C         8.07415114114888   15.62381492300343   12.97832425683103
H         8.45446380316769   15.17755061421023   13.89512893334486
H         8.75583047157167   16.41507439293327   12.67417344159070
H         8.07265390953076   14.86317394612230   12.20224554314590
C         2.48385481562065   13.42345180732264    8.38863082098216
C         2.96377607842583   12.65582072911427    9.19209472478260
C         3.56869502860795   11.85951272265943   10.18618949731504
C         2.84139472995606   11.46265547398683   11.30899436614031
H         1.80649496870514   11.75895813495404   11.39890781165861
C         3.44663152256251   10.70505378711568   12.29256197860253
H         2.87978260515408   10.40275487752815   13.16173817713817
C         4.77587752225501   10.33222564280784   12.17001095458835
H         5.24639123864124    9.74240888103689   12.94298250703357
C         5.50046801678216   10.71870820544454   11.05356753020774
H         6.53646353707629   10.42619889418807   10.95635466032305
C         4.90517919088933   11.47619596629878   10.06436394687215
H         5.46431009830809   11.78356158499954    9.19247964330897
C         0.78280925351281   12.39686787690116    6.17565940263968
C         0.56189818519378   11.20669663594916    6.19394353568018
C         0.30605343823547    9.82275820718266    6.15892239575319
C         1.25896498940008    8.93123733039594    6.65919137212961
H         2.17858289485577    9.32005404119529    7.07262880110395
C         1.02073716861798    7.57177794819797    6.62095136213736
H         1.76167451759358    6.88608452014974    7.00654788806207
C        -0.16395397519861    7.08392015767138    6.09120412146705
H        -0.34482273020036    6.01939606737196    6.06052013029556
C        -1.11782778946693    7.96485370573101    5.60553693124511
H        -2.04459347880352    7.58536861769209    5.19918636778990
C        -0.89086582707739    9.32639273794413    5.63874413079229
H        -1.62977778135515   10.02000592825186    5.26700944701775
C        -0.40398382512645   13.52311125507266    3.87727907341613
C        -1.71842508282849   13.07348038930907    3.89808420371051
H        -2.47990154947057   13.68281603706147    4.36331373802850
C        -2.05038820765221   11.85677062890878    3.33231770140890
H        -3.07951012241137   11.52403983094135    3.35167857954874
C        -1.08387380327554   11.06052065628209    2.73003847319389
C         0.23206293169128   11.50735400880510    2.72666488555591
H         1.00113617504220   10.89387435676208    2.27973920130076
C         0.56873062427409   12.72330172990813    3.28626766717902
H         1.59569494504967   13.06067364131705    3.26824060823500
C        -1.44125399193001    9.74304428857763    2.10607961702367
H        -0.80195328915974    8.96895287575210    2.54131174868109
H        -2.47716130690109    9.49237067400086    2.34502745346589
C        -1.26181695480734    9.71196463263119    0.58202473133487
H        -0.24327252944266   10.01125126146985    0.32796956305937
H        -1.39292743583044    8.67687920000605    0.25612843338362
C        -2.25150677995603   10.59225955418520   -0.18537085277118
H        -3.24442168755685   10.49149664287234    0.25851778164481
H        -2.31491633623361   10.22520904221560   -1.21324637161865
C        -1.85982794753135   12.06485922036060   -0.22519462892144
H        -1.84178363533712   12.49266528709547    0.77251576553294
H        -2.57089941061240   12.62632429248930   -0.82789793313846
H        -0.87134302523536   12.18293064113635   -0.66466691629684
C        -1.59316211147435   20.01079956753231    1.86132844663140
C        -2.74877930108919   20.73003413724931    2.14738613155532
H        -3.03732042459103   20.88253230985444    3.17721600887571
C        -3.53171512835297   21.23243691048395    1.12702469300874
H        -4.42880902482163   21.78648202508935    1.36409302789600
C        -3.18236977397784   21.03516324499051   -0.20340104307287
C        -2.02013957894542   20.32793467014820   -0.48539199717549
H        -1.72802055997476   20.17112174169811   -1.51493259950349
C        -1.23414953939047   19.82097693772948    0.53197011708561
H        -0.33281803243495   19.27160672798163    0.29903744337829
C        -4.06846960751119   21.53544125514827   -1.30770261091373
H        -4.53147311790453   22.47586402335918   -1.00522997210526
H        -3.47900059305705   21.71499603242069   -2.21006226093647
C        -5.15684947578289   20.50199354451864   -1.62283163834373
H        -5.77192438653671   20.34798311157244   -0.73332693551151
H        -4.67278917258399   19.55026683323070   -1.85688001364712
C        -6.04905331006768   20.90667151600415   -2.79589300895390
H        -5.42544090640313   21.11900030902365   -3.66766432909416
H        -6.69209980735227   20.06026392517494   -3.04940376273880
C        -6.92585121855860   22.11626547437131   -2.49345980666739
H        -7.52799832523470   21.93613460262185   -1.60537022811142
H        -7.59621106127687   22.31414373644425   -3.32693527342951
H        -6.32355807589328   23.00563096300481   -2.32688044232729
C        -0.44311395464186   22.50694212390333    2.61337512561437
C        -0.69337181012209   23.39207135813446    1.82549025279936
C        -1.00937760539514   24.41824855200351    0.91604683159301
C        -1.58100397415544   24.14129061601796   -0.32730333493648
H        -1.77663706850581   23.11503064763070   -0.59700471581225
C        -1.88756648321223   25.17366543180114   -1.19157408982932
H        -2.33336651849350   24.95473831613339   -2.15157454544037
C        -1.62599519232929   26.48752668113966   -0.83482272153491
H        -1.86938843518834   27.29147969754001   -1.51405881791970
C        -1.04769164049695   26.76784678712140    0.39393903918606
H        -0.83663343008164   27.79104402250676    0.67046548420174
C        -0.73848755511083   25.74463460547147    1.26722364483206
H        -0.28278899165265   25.95340039739927    2.22440670451755
C         1.12601306712385   23.47598646097699    4.89417463791707
C         1.38915979920446   24.65749846646753    4.90484675269136
C         1.71122983451338   26.02758630422632    4.96927251021989
C         3.03791664690250   26.44119486851591    5.10568262108627
H         3.81602532196295   25.69517970520102    5.17141653928774
C         3.34097622482041   27.78723520995472    5.15533947745355
H         4.36956597343946   28.10245777769123    5.26054168722615
C         2.33374038842511   28.73592187417222    5.06858682689560
H         2.57561702791105   29.78787599965021    5.10881295794633
C         1.01499118881769   28.33153784169341    4.93155663912067
H         0.22770952353137   29.06922588744670    4.86394159605421
C         0.70006430113014   26.98741774851637    4.88102033030700
H        -0.32701939988609   26.66560138196410    4.78144579378587
C         2.16495384002946   22.38012233163020    7.22539958744859
C         3.45942990171699   22.87671513876927    7.13863420719505
H         4.22959473477546   22.28027746529632    6.66924590763740
C         3.75894488197507   24.13161657100041    7.63255272571098
H         4.76935291141634   24.50854974049861    7.54805209575773
C         2.78641121468277   24.91957723370688    8.23780607654842
C         1.50182482694729   24.40318516198568    8.35013513879343
H         0.72755437729405   24.98106061051135    8.83050876783303
C         1.19288949563199   23.15410076880221    7.84765862399887
H         0.18687685822994   22.76985058337658    7.93489091089815
C         3.14850214718476   26.28366027799850    8.75913496201713
H         3.42374544577585   26.20087227528656    9.81620518703108
H         4.03369191742927   26.63510633552025    8.22281452055818
C         2.03738139262272   27.32433931932248    8.60961451940967
H         1.24377681857274   27.13118022587850    9.33373836867803
H         1.60574482882510   27.24765746331984    7.61005469750569
C         2.56151909373713   28.74235929686554    8.82047445701159
H         3.01222496470984   28.82055592724356    9.81299605938373
H         3.34067022973420   28.94877904165050    8.08309622832580
C         1.45220238189759   29.77720184237423    8.68142837988473
H         1.00171136221458   29.71378851749784    7.69339248753086
H         1.84392319453153   30.78252034828939    8.81951219992583
H         0.67505303972395   29.60720420219430    9.42364480257378
C         3.02664310058605   16.85001895906934    3.34446938016217
H         2.28588071842264   16.06413300464924    3.37489531270630
C         4.10967281458343   16.77972429441524    2.48371436541204
H         4.22991411243711   15.93083241212390    1.82893269155328
C         5.02638335333553   17.81901656410936    2.48311451406498
H         5.88257084475881   17.80059318106033    1.82488139631991
C         4.81848062100806   18.88256491600317    3.34677358330343
H         5.50417066490298   19.71461127492458    3.38052911704157
C         3.70567788400765   18.86079292734766    4.17150292336255
H         3.50605282107232   19.66859981174259    4.86064837167098
N         1.23388729881569   16.02220238316914    6.15591056591403
N        -0.21475567557140   17.26455036944832    4.00745013292204
N         0.57197907360609   19.86965433577071    4.93048963595000
N         1.99353892831126   18.63395255613063    7.10061590175462
N         2.82728961321060   17.86753980564890    4.17108561314327
Zn        1.05965627992692   17.93900030093404    5.43662973743289

