36
CSD_code = NULVIZ | q = 0 | S = 0 | Stoichiometry = C11H14BIN6S2Zn | MND = 4
Zn        2.77056393189295    2.80684078408063   -0.37786810256922
I         2.40025593934120    0.62891261461404    0.79603882760522
S         1.90186794812627    5.03152470973441    0.19665510279844
S         5.13187137623522    3.26970165239514   -1.02637179055580
N         3.43229423243916    5.68891726237551   -2.00796920061189
N         3.84156030968813    6.80703205965846   -0.16650624590685
N         4.05158224074169    3.75988823868449   -3.50461003644098
N         5.67312821712031    2.28447175886473   -3.44455578893793
N         1.67101022754041    3.98946670755761   -2.86083200661899
N         1.66774763210672    2.86979265197101   -2.12226996937409
C         3.08597133620740    5.83005960267760   -0.71682336248145
C         4.43801779639537    6.58940747695679   -2.25640323876934
C         4.69380376395229    7.28180611714670   -1.12423765509223
C         3.75947653507397    7.22884022349902    1.20187243615744
C         4.90490470016436    3.10794175697029   -2.69624445850719
C         4.28155869131698    3.31700981983393   -4.78066574795240
C         5.28418074392795    2.40964646561611   -4.75143525854353
C         6.70685786397585    1.42904528670150   -2.93661591714426
C         0.46601109892202    4.16107074587860   -3.41915867598334
C        -0.35213808151239    3.12353633504378   -3.02592884269746
C         0.45244219099940    2.33968788618665   -2.20660510938534
B         2.93605501627383    4.78455635559014   -3.15983757729639
H         4.88843282537026    6.65782366512388   -3.22425506244110
H         5.40232808727417    8.05784935369267   -0.92284906576253
H         4.63530417835340    7.82505512441511    1.44663143542070
H         3.71501887068728    6.35174729469505    1.85008906155661
H         2.85444657746927    7.81731521885746    1.36662763565668
H         3.70913679300125    3.68767087114894   -5.60457747520538
H         5.74485559333014    1.84835928229247   -5.53720041447362
H         6.79585808932427    0.54980718198040   -3.57152792639131
H         6.44954637956035    1.12790482991141   -1.92043836349324
H         7.66322863969695    1.95585731680135   -2.90692325172614
H         0.26610764580824    5.00186761894259   -4.05185363630325
H        -1.37708192705620    2.96010826897406   -3.28552811935601
H         0.21236885659001    1.42819443956849   -1.69314298618820
H         2.74782567966064    5.47288302155796   -4.11077921298477

