99
CSD_code = NULVOF | q = 0 | S = 0 | Stoichiometry = C36H58CdO2S2 | MND = 4
Cd        0.00003251667081    0.00007892548056    0.00001279468436
S         1.79049860026334    0.93310327443782    2.00295002795655
O         1.71683888321760   -0.15457106075956   -1.08326920081628
C         2.89788534365357   -0.52147987233041    2.15977842553842
C         3.05898392191990   -0.76931085222932    3.65092033542544
C         1.69915816246002   -0.48759303926326    4.28133231461201
C         1.26838168097537    0.87110321893775    3.76144614680367
C         1.89550695303301   -0.07121641642885   -2.39262653630460
C         1.86421733565129    1.18012000553873   -3.07383544632762
C         1.93891809989237    1.18919792554944   -4.45824705711274
C         2.10604824582293    0.02872139763630   -5.18630205700483
C         2.27431341459602   -1.16999729223936   -4.52027479813199
C         2.19100824649097   -1.25023409709465   -3.14013482115606
C         1.79391551487240    2.50986696684966   -2.31631019896839
C         2.84327003433476    2.52000353024578   -1.19635190308465
C         2.09878839936431    3.72333467951415   -3.20840895567657
C         0.39061865382357    2.72786031439560   -1.73424887637080
C         2.43869728466748   -2.58394590820429   -2.43505404893915
C         1.14785117805982   -3.08651195841595   -1.77530255875805
C         2.91952111977145   -3.68756938012268   -3.38623681706757
C         3.53457568145045   -2.39183503531170   -1.37747740207317
H         2.42647107695883   -1.36679558136277    1.65711183138015
H         3.83371475849831   -0.28059948256584    1.65983148150102
H         3.39136757977906   -1.79081435613808    3.83669153910273
H         3.80122061887425   -0.08265543128790    4.06279623795186
H         0.97163391990830   -1.24032277517201    3.97317719990256
H         1.74809725735952   -0.48355963158924    5.37006382430492
H         1.79242308589243    1.68110972764744    4.26982569933779
H         0.19464657912355    1.02829149221753    3.82013034944717
H         1.87255509896217    2.11782985819349   -5.00112806729463
H         2.14483424138219    0.06296989763638   -6.26521262147090
H         2.46651481883877   -2.05252380833338   -5.10783005606846
H         3.83831142005624    2.43141161619217   -1.62719246254050
H         2.69223363776428    1.68894804217233   -0.51417790177561
H         2.78824529882078    3.44901703110850   -0.63138344778617
H         3.05932246973519    3.60920554957164   -3.70436777555142
H         2.14232455629340    4.61647898374134   -2.58736163701753
H         1.32812943371402    3.88221602024362   -3.95973156948735
H         0.38078683841431    3.60786419847870   -1.09124305691522
H         0.08246520484423    1.85804612858296   -1.13553724122704
H        -0.33291039309122    2.87805928277566   -2.53608519977267
H         0.38372340431554   -3.27448138054549   -2.52818827564592
H         0.76434084722971   -2.34797105629000   -1.07143971490251
H         1.33792481905139   -4.01416684028955   -1.23732810558568
H         3.82330734473204   -3.38782719982861   -3.91131796725917
H         2.15454652191560   -3.95262337332102   -4.11287292141304
H         3.14850285616641   -4.57965135474774   -2.80543141102300
H         3.25883664075404   -1.59498289747270   -0.69479852187273
H         4.47128108109472   -2.12107489827167   -1.86038313700835
H         3.68630575867436   -3.31077124799952   -0.81317544944567
S        -1.79051080248799   -0.93272296026770   -2.00295486688300
C        -2.89787281060962    0.52186773458589   -2.15979537189061
C        -3.05908708398156    0.76974277329195   -3.65091795490598
C        -1.69926619736176    0.48806547095268   -4.28134415274937
C        -1.26841955640763   -0.87061378509777   -3.76146613660026
H        -1.79243000230446   -1.68064013906371   -4.26983920439885
H        -0.19468068199085   -1.02776775142778   -3.82014430943468
H        -0.97176408259847    1.24082666198579   -3.97321687386400
H        -1.74824756949599    0.48403612948268   -5.37007228260731
H        -3.39151893139250    1.79123539758085   -3.83666605078443
H        -3.80130386039018    0.08305065903923   -4.06276449436749
H        -2.42647916060186    1.36719822627084   -1.65713062115498
H        -3.83368669103580    0.28097514302524   -1.65982638628003
O        -1.71680843709939    0.15445358164264    1.08328179796877
C        -1.89549247559223    0.07108020466627    2.39263588851247
C        -1.86406127208372   -1.18025204470981    3.07384661371782
C        -1.93876414492107   -1.18933676402626    4.45825759612154
C        -2.10599966006967   -0.02887433982781    5.18631167742578
C        -2.27438093281778    1.16982698865279    4.52028446619877
C        -2.19110070132531    1.25006937692199    3.14014288497665
C        -2.43895758114068    2.58374708621870    2.43505466383636
C        -1.14820569018137    3.08645684601357    1.77522810865852
H        -0.38406454682028    3.27454117152668    2.52807118988363
H        -0.76464082246784    2.34794717069199    1.07136085312930
H        -1.33841741326610    4.01407457403629    1.23723845217004
C        -2.91986575988445    3.68732778659162    3.38624392848393
H        -3.82361102346008    3.38749996260988    3.91134661125948
H        -2.15489987460569    3.95245747070492    4.11286155015223
H        -3.14894633413719    4.57938522128278    2.80544019868304
C        -3.53486215182392    2.39149279132547    1.37753181237475
H        -3.25905937101337    1.59466157104782    0.69485426767311
H        -4.47151481531384    2.12063074075290    1.86048204149224
H        -3.68672344905372    3.31040316277552    0.81322322301332
H        -2.46666070450493    2.05233621276771    5.10784038562168
H        -2.14477838706216   -0.06312422467897    6.26522209696395
H        -1.87231848387115   -2.11796301217065    5.00113855693030
C        -1.79361044826377   -2.50998830375324    2.31631673382678
C        -2.84297929017626   -2.52024481211605    1.19637142786868
H        -3.83802379017287   -2.43174756226618    1.62722505501232
H        -2.69203307414726   -1.68918140363601    0.51418677372845
H        -2.78787095273000   -3.44925830040307    0.63141076876364
C        -2.09833095727462   -3.72349483520655    3.20841384879627
H        -3.05887703170477   -3.60949024523556    3.70437887015642
H        -2.14175672675486   -4.61664311883500    2.58736399306022
H        -1.32764627075951   -3.88228053590430    3.95973036177459
C        -0.39029568090444   -2.72781195348678    1.73423412183428
H        -0.38037649441557   -3.60780161058299    1.09121078745280
H        -0.08224326873306   -1.85795227372118    1.13553829711856
H         0.33325940216046   -2.87795197955207    2.53605781219195

