91
CSD_code = NULVUL | q = 0 | S = 0 | Stoichiometry = C44H42CdO4 | MND = 4
Cd        1.86994652632345    2.81168159148628    4.99169082161734
O         2.86897147460970    2.87988905532119    3.28341571986252
O         1.15028750209071    2.58768647270206    6.82239220652677
O        -0.26358035739648    2.41522794664714    3.75446570936079
O         0.75160052891680    5.03706910013755    4.79968118999247
C         3.33045598710316    4.03947379737067    2.89179632237975
C         3.27798031019892    4.38825214765884    1.51480700064217
C         3.73692119054381    5.62466024861248    1.08794242071730
C         4.25135499339030    6.54886331882235    1.98148662226835
C         4.29531226912423    6.23550514402161    3.32665553929672
C         3.85421895401469    5.00351714209351    3.79493305041685
C         2.69702980033033    3.43830469985117    0.55434678538806
C         3.02681952394904    2.08501260427573    0.59245999076656
C         2.45166567316020    1.19556004512094   -0.29583913362422
C         1.53815207412515    1.63857058995152   -1.23789718648598
C         1.20825697743522    2.98240019650217   -1.28966445139071
C         1.78208016652496    3.87385725548305   -0.40252634866926
C         3.88259058136261    4.71182981757357    5.23689266364306
C         4.37437890742167    3.49027157101481    5.72296852184492
C         4.41626085789375    3.23918340666737    7.08991232962622
C         3.94912730109321    4.18115330673084    7.98856745734738
C         3.46379345853814    5.39304665899551    7.52045846759497
C         3.43770490258297    5.65872474997660    6.16549076239201
C         0.20590131820144    1.70082864276812    7.00292073103169
C         0.18032258238100    0.45501068691665    6.31962262332579
C        -0.87006500625995   -0.43263423286300    6.52027934144570
C        -1.90066721545964   -0.13856911277467    7.39271840589231
C        -1.89538592438231    1.07330575129848    8.06233511889231
C        -0.87153174186766    1.99060587036290    7.88356570137697
C        -0.90663101761148    3.28863122990729    8.57370657735565
C        -2.08321228098416    4.03458631880507    8.61422815269830
C        -2.11666761838641    5.26940636708196    9.23483632846185
C        -0.97504688907351    5.78232045953217    9.82730093272858
C         0.19804515072174    5.04655185493614    9.79958152536209
C         0.23408167169846    3.81151871576397    9.17962029866067
C         1.24662650392432    0.12829723765797    5.35973333423400
C         0.93740293408823   -0.39469504180515    4.09971404391532
C         1.93299827220251   -0.70510521113100    3.19437089370020
C         3.26642932472591   -0.51750786616195    3.52625977295101
C         3.59669614721942   -0.02439628885969    4.77560444627847
C         2.59985256568716    0.31020980520769    5.68535966264249
C        -0.21266967947126    2.32663093765514    2.33887296754221
C        -1.41051440419746    1.45529814917257    1.92470388483127
C        -2.33141388595920    1.49118902696354    3.15727365995500
C        -1.63744386483449    2.49842441358751    4.08323376167364
C         0.00473761613428    5.51154686953972    5.90935398589097
C         0.02293051007328    7.04605033624162    5.80820021390839
C         0.41715529602945    7.31053657153370    4.34424364670182
C         0.43753263075583    5.90578347587291    3.72767036763666
H         3.70638004735167    5.85700493677024    0.03238593308245
H         4.61774429597748    7.50177991312734    1.63009176907512
H         4.70740008064351    6.94505213168031    4.03162489543644
H         3.73849762894584    1.73808380672217    1.32474484799459
H         2.72140331779943    0.14937319935335   -0.25832970559262
H         1.08870325933391    0.94223592457385   -1.93122774159793
H         0.49877533441042    3.33615408572990   -2.02478331796352
H         1.50998537881173    4.91976638199261   -0.43974544027665
H         4.82613460632177    2.79050069388060    5.02799776125912
H         4.83879300403917    2.31081588298989    7.45204725684358
H         3.97632625121421    3.98131459172421    9.04968424709134
H         3.10991593457497    6.13691970399438    8.22059141320487
H         3.07896894946797    6.61402885779070    5.80980786136935
H        -0.85732356330845   -1.38249988130896    6.00274161176977
H        -2.69882848170582   -0.84752625108548    7.55418367527541
H        -2.69219437750953    1.30858578200378    8.75432434582457
H        -2.97500455564694    3.64599443983195    8.14194830140182
H        -3.03702972687751    5.83632566687599    9.25592577751552
H        -1.00175488007586    6.74794545086600   10.31151962228566
H         1.08938214746772    5.43702446959888   10.27047140254881
H         1.14834814703793    3.23986716161127    9.15988811119915
H        -0.09818200439562   -0.56473536146208    3.84203300836943
H         1.67150034467953   -1.10283379181774    2.22370329059651
H         4.04219081285223   -0.77020490016156    2.81845789771362
H         4.63665469043383    0.07993345293093    5.05693629541710
H         2.86323048780292    0.60752342215041    6.69478049629058
H         0.75671439222247    1.90986345772832    2.06707994474476
H        -0.30034829671606    3.33224932315404    1.90260509141940
H        -1.89544801801728    1.86094768259265    1.03898658125816
H        -1.09082074696683    0.43986237844908    1.70022452579897
H        -2.37867141523166    0.51636061569902    3.64052482999443
H        -3.34468553632673    1.80315368188616    2.91375212301436
H        -2.00929992502304    3.51577801944847    3.88436232619242
H        -1.74975827884001    2.27019073305195    5.14370113883694
H        -1.02669147549362    5.13514542049252    5.84835612771395
H         0.46847741644633    5.11892693937682    6.81374509817869
H         0.75126173706558    7.47047125311090    6.49612595177011
H        -0.95346446684415    7.46085205477724    6.05100113011095
H        -0.28767212301801    7.96211804956856    3.83235647340486
H         1.40806042823014    7.75760230272416    4.27911886941353
H         1.19259824834386    5.77762952550266    2.95128365671553
H        -0.55466166830311    5.65525295784264    3.32072567460600

