42
CSD_code = NULYUO | q = 0 | S = 0 | Stoichiometry = C14H17CuI2N4O4 | MND = 5
I         8.38064064820244    8.28003540235798    1.44253447815998
I         4.25791806809351    6.64207997993606   -2.54942489435997
Cu        4.77844145319711    3.25735529651115    1.66428517528110
O         6.42958173587228    3.40830774829769    2.38956412521596
O         8.59249158882648    3.08107962000651    2.31484037530501
O         5.88538562982293    8.26779450819960   -0.42637395425867
O         4.50711896001748    1.56028384149402    2.39285660946667
N         4.54639847234571    5.23523025721421    1.66004697583886
N         4.97656103997645    7.34301791877616    1.98831133443030
N         3.02374513342556    3.03598530150596    0.90389876189591
N         5.96523311408498    2.06944781627489    0.06572017061924
C         5.40897063352312    6.09524409395158    2.17202622272664
C         3.80525659856536    7.28643024420842    1.29894783428955
C         3.52948802959130    5.96286805327214    1.10088580541750
C         2.32464004043163    5.34702778397230    0.47054973185458
C         2.60384046904640    3.97438520205546   -0.12953569132422
C         7.49111302968577    2.96366238130951    1.82198972363762
C         7.36665441652900    2.27055508992584    0.43809665115328
C         8.10990865710697    3.13154617115665   -0.60131935579832
C         7.56954366142964    4.52749972958608   -0.64126786971824
C         8.13570062425755    5.51491526842293    0.16621148370755
C         7.59328532721582    6.76880390213811    0.20087242507854
C         6.43143798929979    7.15913525348810   -0.54438853715704
C         5.93832357684834    6.11773417386360   -1.39019028736482
C         6.46975559497698    4.85762542413846   -1.43328343150389
H         6.30343158118327    5.80513552561340    2.68654797263971
H         5.50066506083689    8.18854516249585    2.17533476788914
H         3.28029486260038    8.16368378888455    0.98486353176686
H         1.53622199807319    5.25335662413966    1.22495817746353
H         1.95893750636148    6.01482811729842   -0.31025648130927
H         1.69526229992398    3.61941774694530   -0.63121080208886
H         3.39990499938655    4.04445893149382   -0.87259695385420
H         2.39010240437482    3.04358054521186    1.69811656871392
H         3.07228740891507    2.07827213582588    0.57086876386473
H         5.65050879838439    1.15609843381089    0.38621225300374
H         5.85426206547202    2.11665004141738   -0.94215916754813
H         7.90363354279095    1.31481776718125    0.52265722950396
H         9.16228943842366    3.15224476063229   -0.31556216848503
H         8.02273225411281    2.65589998744303   -1.58306417360772
H         8.99408657178508    5.27211855871960    0.77453610153583
H         6.04377717813021    4.12000860062695   -2.09958987338354
H         5.17076753688049    1.37503281020681    3.06129039130868

