46
CSD_code = NUMBEC | q = 0 | S = 0 | Stoichiometry = C17H20FeN6S2 | MND = 6
Fe        5.05622008454655    3.68761615742998    3.39595525260604
S         6.18504870219828   -0.06220139902792    0.99348211485339
N         5.82610184721682    2.06500959034280    2.71137261619933
C         5.97558801213468    1.19689966519292    1.93176218399807
S         6.11845133539964    6.79983380212860    0.28904871984395
N         5.92973058808412    4.66661093690463    2.03142086543787
C         6.00511366297939    5.54332085142838    1.25355263858839
N         4.06975842685439    2.80567778225202    4.74133503261573
C         3.96805542774372    1.47635530865637    4.88227253714080
C         3.01813249903914    0.86451840424586    5.67184600996246
C         2.10879363265393    1.65043202414681    6.36742323352912
C         2.21923646120630    3.02796910485831    6.24549931243708
C         3.20668596836681    3.56572464029070    5.43981800369458
C         3.40044708236331    5.05405537545606    5.34543140926925
N         4.21373854105395    5.44227881988443    4.18493656929096
C         5.15757968048936    6.51128398345749    4.53728483561391
C         6.31003066883332    6.06809859538244    5.44075355400770
C         7.33316561419743    5.18750705512831    4.72457831358266
N         6.80668621727072    3.84435481351415    4.50258052404976
N         3.45359338417860    3.60970162065705    2.35239950552183
C         2.97318249618823    2.55658765343026    1.69231852483279
C         1.74266173990277    2.56018062329110    1.06358146479677
C         0.96074476665194    3.70420346808254    1.12194123198365
C         1.45786122469652    4.80326853613498    1.80577840641168
C         2.70626651791330    4.72294658319545    2.39909179730936
C         3.34746651732417    5.89179771538135    3.08659810040143
H         4.68556838599206    0.90544003532284    4.31479957527434
H         2.98807993438561   -0.21091641209767    5.73779617576319
H         1.34403706945270    1.20952358501793    6.98636927475348
H         1.54596105100235    3.68491794054278    6.77552393638328
H         2.42366440649860    5.55430407227130    5.32482106567260
H         3.90262388035648    5.37788559471135    6.26184666664796
H         4.61522707142314    7.33778701689013    5.01937285838404
H         5.59160817113814    6.88457545783982    3.60904276794598
H         5.94243108945613    5.53730078223966    6.32160514905350
H         6.81456695814796    6.97149460080561    5.78771479247269
H         8.25690131664155    5.15712393202381    5.31815031780936
H         7.56095953855150    5.61825157930035    3.74858096142730
H         7.42400377020152    3.32891848257461    3.87754832797624
H         6.76957773429296    3.32862207455261    5.37892220304578
H         3.61683853497891    1.69195760010545    1.66638925313379
H         1.40812640263145    1.68274521520486    0.53452531987981
H        -0.00553076593038    3.74438866589850    0.64409531351904
H         0.89126111062634    5.71992459436391    1.86713363537216
H         3.97641222832228    6.38751485842154    2.34109313837901
H         2.59484101234505    6.61360861216523    3.43340650912851

