79
CSD_code = NUMKOX | q = -1 | S = 0 | Stoichiometry = C45H28N5Zn(1-) | MND = 5
Zn        8.86173816650227   13.73985703739488    7.22244031675670
N         7.88901324193605   11.86436420192915    7.44325299869033
N         9.83146846545979   13.26127660419675    9.05368811050928
N         9.03024531814388   15.75816206314680    7.85775467528046
N         7.08657238783821   14.36335668453021    6.24854553166293
N        11.02783614156604   13.34991647037786    5.00879884499199
C         6.89834741144003   11.39762951224035    6.65273907578160
C         6.76634047873722    9.97065904341982    6.81971770789682
H         6.06796277239303    9.34244942200649    6.29877311845583
C         7.68929406086103    9.60429606752685    7.73754687498206
H         7.87555940432950    8.62227533070062    8.13120842337840
C         8.39377003992606   10.80616909644230    8.11318545984374
C         9.41766158586561   10.84843254829713    9.06327506994226
C        10.08109527384012   12.00489266381705    9.48121658759193
C        11.17506102984270   12.01248938207320   10.42229886079615
H        11.59575374690587   11.14569094661376   10.89727733243720
C        11.56434683602208   13.30105617892585   10.54827338805740
H        12.36542696914791   13.69358765803923   11.14661844890416
C        10.70439616088625   14.07520214623823    9.68599111990361
C        10.79812059388748   15.45985540567863    9.52504024378012
C         9.99840789091785   16.22719061425862    8.67377515348583
C        10.06528478637385   17.66551623263036    8.58233551475724
H        10.73547568156447   18.29586268520004    9.13696449763878
C         9.12358267581928   18.03785225467363    7.68612111674586
H         8.89081717047734   19.03000444505948    7.34658281631862
C         8.47666065963654   16.82635660893553    7.24423912387562
C         7.43602009165666   16.78684603480578    6.31276544021366
C         6.78700903776378   15.62734688936079    5.87987985722849
C         5.63511378903726   15.62693482870565    5.01128734407061
H         5.16798218465777   16.49998880097980    4.59437388919331
C         5.26535798968154   14.33444288438931    4.86426363693443
H         4.43647225228018   13.94321776006725    4.30375336570649
C         6.19185128419756   13.55177134769361    5.64553794203346
C         6.10479430015427   12.16499528189166    5.79638388423538
C         9.83192165901139    9.56816546160349    9.67367825680287
C         9.65998590498363    9.34166780789554   11.03672618490102
H         9.21363290156230   10.11490099462620   11.64587099234818
C        10.04471859437709    8.14162702670799   11.60607636643403
H         9.90186006513179    7.97781407558184   12.66578376299718
C        10.61046355133153    7.14910121856480   10.82318884738076
H        10.91201989955788    6.21107098898963   11.26884401902342
C        10.78861434334201    7.36536855511242    9.46659770005139
H        11.23355884027214    6.59507262277717    8.85153216983065
C        10.40166084837553    8.56378923300537    8.89555928948986
H        10.54668074710555    8.73837825648058    7.83932184592313
C        11.82368938266139   16.17068725545877   10.31626872833343
C        11.76128018294891   16.19962117003987   11.70684568646600
H        10.94411525735099   15.69961221800889   12.20727792845348
C        12.72454960766030   16.86625138159988   12.44184091513660
H        12.66226684339100   16.88314937093255   13.52168181839073
C        13.76728824905305   17.51283588268641   11.79946445179958
H        14.52126920258601   18.03251082411627   12.37469149721690
C        13.83913563931556   17.48933800483452   10.41629318440950
H        14.65304957348691   17.98997200756603    9.90981949437990
C        12.87513163012136   16.82559464088855    9.68014187617500
H        12.93247068458458   16.79863404462457    8.60168153517861
C         6.96830026786142   18.07124485540938    5.75144187728781
C         6.38144868476119   19.03726067382685    6.56438347086813
H         6.26398946711928   18.83603503566054    7.61975332767553
C         5.94254689579599   20.23520743226811    6.03074472102480
H         5.48512208042089   20.97550940862813    6.67332445344438
C         6.08477191538103   20.48858612213734    4.67662365858446
H         5.74277705303399   21.42619023896788    4.26026855853084
C         6.66671678053127   19.53389082696157    3.85892110293138
H         6.78167798808441   19.72729279682242    2.80109223532555
C         7.10291647788739   18.33444266504671    4.39072276844376
H         7.56184655630843   17.58980568875986    3.75662508878782
C         5.07379973695359   11.46560368473934    5.00178870470645
C         4.00876942575674   10.81495927463621    5.61878630487861
H         3.93646305431863   10.82947652474797    6.69706495611582
C         3.04663021402089   10.16775428592311    4.86508519919720
H         2.22244617319885    9.66915872214332    5.35735729984338
C         3.13367314224689   10.15848834658182    3.48291251468023
H         2.38158185557659    9.65118785357885    2.89433122693840
C         4.18873214862559   10.80382533024269    2.85906078729554
H         4.26219840458877   10.79877436687162    1.78007491126550
C         5.14957515264681   11.45380222399369    3.61134476384451
H         5.97632781052052   11.95415546504724    3.12833113616749
C        10.22498522640026   13.49314000265708    5.82526860896334

