55
CSD_code = NUMLEM | q = 0 | S = 0 | Stoichiometry = C22H25N3NiO4 | MND = 4
Ni        0.54549527336558    1.53014582984915    3.97327850584378
O         1.09948821273592    2.56956646441177    2.59386396477995
O         0.02917041971481    0.42850610312362    5.38536129368704
O         0.99378460947616   -5.18121873176399   10.02445173310807
O        -0.88638538226498   -4.07884464266202   10.54188054915523
N         2.01465329898480    0.44625261120165    3.91156975303528
N         2.00597111425482   -0.54069320244764    4.84365496831980
N        -1.10584286891396    2.64889056729829    4.12630508910967
C         2.18101489045343    2.48877860518965    1.88366357530860
C         2.39184911194216    3.43178482937673    0.85273724735094
C         3.51686999234121    3.39432075801474    0.07124970312038
C         4.49463440462523    2.41609192206875    0.27216304344388
C         4.32462252537677    1.48449715362409    1.26224170049286
C         3.18347534141571    1.49213540502884    2.08341016400521
C         3.03295924230549    0.51688039637771    3.10289710708754
C         0.92654755141046   -0.47886472119585    5.58225035932616
C         0.74009132950909   -1.46038288432550    6.65979526520074
C        -0.38973152914168   -1.38399988805803    7.47360734882830
C        -0.57682281995567   -2.28948742669151    8.49658579445090
C         0.36801387010727   -3.28944260821388    8.71851267262088
C         1.49657266447795   -3.36978275415310    7.90193561741844
C         1.68384417434557   -2.46338810729546    6.88095179491334
C         0.21614105345996   -4.28227270468174    9.80714954009377
C        -1.10085975256167   -4.99211283243688   11.61648315074921
C        -2.35643849513209   -4.57330115307372   12.35782105577058
C        -1.26400989389842    3.31356432364198    5.42703824568749
C        -2.44372957840263    4.28576552671664    5.41278797429499
C        -3.72565962368522    3.54544129570315    5.04116459194978
C        -3.53732594636353    2.83422467666435    3.70394924776414
C        -2.32397290170305    1.90668138416555    3.77252681847581
H        -0.98157367019293    3.38285976590374    3.42107662916041
H         1.63389174109731    4.18597149204997    0.70111364981352
H         3.65020617200898    4.12963915609988   -0.70915804364221
H         5.37566275213730    2.39911919604461   -0.35084834266825
H         5.07223117850566    0.72226153109485    1.42926115215850
H         3.81430454814165   -0.22831628406913    3.23028235613924
H        -1.11077286739999   -0.60231273364989    7.28755514323912
H        -1.44853379614854   -2.23254586780569    9.12966631590639
H         2.21331640756736   -4.15431835290629    8.09256743119354
H         2.55097842769897   -2.50912059864803    6.24225897694743
H        -1.19737425415557   -6.00426633662166   11.20670570550097
H        -0.22398082754028   -4.97710938685625   12.27405787231264
H        -2.53976700397328   -5.25765812792817   13.18098517342773
H        -2.24077490891923   -3.56670146015702   12.75097665494369
H        -3.21040412303771   -4.58817040035390   11.68576797031844
H        -0.33725265821648    3.84409253684367    5.66428025455762
H        -1.42207261746512    2.53991292379750    6.18286848587311
H        -2.54439177804480    4.75009238254535    6.39459331216635
H        -2.25451202710854    5.07957023635170    4.68534186770890
H        -4.56204717404964    4.24421542519146    4.98285381325663
H        -3.95708474710948    2.80966494707858    5.81407602268935
H        -3.38749275113735    3.57368933755320    2.91284904506377
H        -4.42606980897985    2.25347414530593    3.45389628470751
H        -2.16673700833208    1.41536185297295    2.80755903844418
H        -2.48126949362896    1.13625842470114    4.53222535538927

