80
CSD_code = NUMLAK | q = -1 | S = 0 | Stoichiometry = C45H28N5SZn(1-) | MND = 5
Zn        2.82865568998022    3.91409575051598    8.69293303502371
S         5.63441025463795    7.31655952402732    9.27829602379574
N         4.47975148637104    4.81217074587698    9.16963110005790
C         4.95225582482475    5.88498099035809    9.20991246049570
N         1.59149908858450    5.07393979322162    9.88934609488397
N         2.38808070776010    5.20051901580095    7.12732112804197
N         3.33433899632186    2.49808137060895    7.27671993673048
N         2.56179795410809    2.37561427713651   10.04300897611558
C         1.28603013816385    4.83007726660776   11.18286547680418
C         0.79833568254890    6.03281269692205   11.81090536864125
H         0.49719329729960    6.12022753363667   12.83816189156733
C         0.84506009388520    7.00331493335885   10.87078117667889
H         0.58440837418992    8.03984410029060   10.97364118235624
C         1.34487414593579    6.38600324671417    9.66851839158926
C         1.57351031663344    7.07273721749417    8.47718756896530
C         2.05975789296033    6.50067926842751    7.30243797323110
C         2.24978719672332    7.22778957021600    6.07297488821577
H         2.05843796574708    8.27558837978448    5.93660780847500
C         2.70424094964381    6.33529197478468    5.16480764917663
H         2.97987960261569    6.51355520776021    4.14227375777343
C         2.79624258329295    5.06798446656179    5.84629685630157
C         3.29089679008387    3.89866355955803    5.26471723701552
C         3.52389074049480    2.70578915359541    5.95243070898302
C         3.98881693021219    1.49373264706631    5.32788069624465
H         4.18489034684256    1.36845936821687    4.27946712120663
C         4.09705171885188    0.56975264940711    6.30991207519989
H         4.40126256314527   -0.45660714942579    6.22165588916831
C         3.68663605727199    1.21692203365690    7.52938397221015
C         3.60150888825776    0.56654598012072    8.76224142873858
C         3.05987710039042    1.12284595136236    9.92203205479937
C         2.92531095437250    0.41792976426744   11.17078193697797
H         3.25716816378327   -0.58568730187936   11.35995999585714
C         2.31565495417175    1.26696071975910   12.02929919767048
H         2.03009245813498    1.08236521597772   13.04795565973013
C         2.10353551746977    2.49744734107008   11.31096491957932
C         1.48973011850298    3.62535063518266   11.85857435289428
C         1.32317962350137    8.53149247436609    8.46759535035420
C         0.03004356130921    9.04011968391342    8.52211333835073
H        -0.80573959612863    8.35571836789122    8.56777582722293
C        -0.18655709020388   10.40663683568637    8.51149565763886
H        -1.19656948094685   10.79241334330311    8.55094891535856
C         0.88639628642640   11.27990846884860    8.45120021604742
H         0.71598017524446   12.34796968058710    8.44483607817210
C         2.17755053834845   10.78000454569706    8.40218169322345
H         3.01837404363751   11.45804076350654    8.36133125496536
C         2.39713501691874    9.41470941384984    8.40786864250921
H         3.40189887232501    9.01968911710371    8.38183049078864
C         3.61215965626247    3.93747381001023    3.82392754899948
C         4.91241567250886    3.71910239005563    3.37610070328544
H         5.69213582341315    3.53294991004928    4.10014954112275
C         5.20710374700257    3.75575278097374    2.02562797551010
H         6.22200585581065    3.58886335106979    1.69172595217554
C         4.20815250703609    4.00858128389612    1.10006789259575
H         4.43912077689966    4.03566150040183    0.04412117368004
C         2.91189156815782    4.22938832868579    1.53500733914723
H         2.12781071010324    4.42762830764492    0.81686853216403
C         2.61636519828992    4.19625181189891    2.88531284740873
H         1.60447845703880    4.36375226345970    3.22572091454756
C         4.09748969184607   -0.82443098534105    8.82715719756724
C         5.44664312602207   -1.09632669377637    8.61571493273378
H         6.12016461032582   -0.27650337093389    8.41272520795514
C         5.92140752142588   -2.39364723864397    8.67377194509084
H         6.97242682462951   -2.59019445991842    8.51219508854605
C         5.05518538538044   -3.44140301369679    8.93924494960138
H         5.42634762889749   -4.45598064656484    8.98377642712824
C         3.71042652432120   -3.18240280080076    9.14560135848150
H         3.02882206367721   -3.99740212423401    9.34824191164870
C         3.23489963603078   -1.88479955661320    9.09088078810909
H         2.18409318134145   -1.68343807432838    9.24306914494004
C         1.05408155038701    3.55729198172517   13.26910937885879
C        -0.29444181176206    3.67088051716204   13.59639335050509
H        -1.01754378793790    3.80515653402439   12.80461732210771
C        -0.70767267620401    3.60571575058457   14.91441409373943
H        -1.75870094886198    3.69164993903553   15.15433161467934
C         0.22060633634639    3.43120499248195   15.92735251392405
H        -0.10240305495858    3.38148525677487   16.95792576710159
C         1.56530781795750    3.32363853638004   15.61282046404447
H         2.29452150076996    3.19285383833794   16.40044145570465
C         1.97947761975416    3.38476030479969   14.29484169086187
H         3.02845779346145    3.31084498261692   14.04787952021975

