33
CSD_code = NUMMEN | q = 0 | S = 0 | Stoichiometry = C8H13NNiO10 | MND = 6
Ni        2.14879851429361    1.93537075787778    1.71493976325562
N         2.51675241665673    0.84604520782514    3.67854717656845
O         2.34025412608245    3.63763621642311    2.54136537769224
O         2.32768207229402    5.15862132731854    4.13140433329329
O         0.31063233493765    1.87695039138815    2.44570131345010
O        -0.82338864149499    1.89481007021375    4.35269596941939
O         2.05535195338394    0.23846657062606    1.07831107864172
O         2.13990925835713   -1.93007795448536    1.40801241779741
O         3.66049315822852   -0.36166361986180    6.02808534489168
O         2.50710856442486   -2.25887544985984    6.22165253689798
C         2.24980339790964    3.89960941647498    3.72850113635704
C         2.08375423828729    2.94791101696197    4.88331561528612
C         1.54801658038429    1.56500727061139    4.49987608860065
C         0.19516254707332    1.78848613015436    3.70349355465209
C         2.10642759772725   -0.79640239893722    1.83362220408193
C         2.13224148610690   -0.54246120158176    3.37832803127699
C         3.07655198941766   -1.56406851256595    4.03419797686234
C         3.13366367100512   -1.32119505073957    5.51701602631754
O         3.80902903432915    2.24207686503432    0.39914436080920
O         0.99140323905431    2.56595776561890   -0.32812957126333
H         3.41867179838876    0.84266481726997    4.15488981766588
H         2.43883688643893    5.76766867502959    3.38148831661454
H         1.29154889192580    1.02152007471729    5.42025914004791
H         1.10568447404062   -0.71624875418996    3.72577945392102
H         2.53391279580028   -2.06476661916881    7.17258667036253
H         3.06319487018965    2.85149883346256    5.36579469845301
H         1.40869963718297    3.41572845778295    5.60258896243260
H         4.07619963300216   -1.43842060252547    3.61222987589042
H         2.71702129775415   -2.56845001970376    3.81957812547821
H         3.36006093009069    2.77365059927238   -0.27360898613033
H         3.92779741304039    1.36202772849961    0.01912789849316
H         0.79583153048186    1.64664553104696   -0.55187235092010
H         0.21899230320902    2.88137646000491    0.15727764280124

