28
CSD_code = NUMRES | q = 1 | S = 0 | Stoichiometry = C9H12O3S3Tc(1+) | MND = 6
Tc        4.17814928581999    8.75690869603621    0.63927944354517
S         2.44338556305621    7.57145396371177    1.94462303784739
S         2.58378431997392   10.64781077615704    0.68798331322733
S         2.86936515876691    8.01427532594248   -1.32436092209252
O         5.97074966071096    6.26502767775788    0.49593712052855
O         6.14482663828098   10.35009222114941   -1.10327895352114
O         5.58663902655100    9.70203896499337    3.20174761261095
C         5.32251360413977    7.19775946244424    0.55417104948717
C         5.43183096106911    9.75271399323815   -0.44896361705565
C         5.08218088345426    9.34921525065356    2.24545142614583
C         1.46892276767059    8.95998636499568    2.62792099759770
H         0.56365656566354    8.53927552561607    3.06878727739507
H         2.10156598015394    9.34436274356767    3.42986325095671
C         1.27113201395448    6.86186275205661    0.71095522130014
H         0.92937837665464    5.91229941614803    1.12533845981125
H         0.41394200177242    7.53026287679934    0.63952656531041
C         1.91859762774141    6.61212689367571   -0.63547134306617
H         1.16854914269963    6.32925338525660   -1.37587284188999
H         2.65847637008700    5.81296329994816   -0.56530365058515
C         1.54989968362561    9.27908143449546   -1.56638785964975
H         1.39330472165776    9.35555434595781   -2.64342087608537
H         0.63385479155496    8.89931745190244   -1.11531169496983
C         1.93688157000779   10.63881762484455   -1.02258878111054
H         1.08667918840058   11.32206170342506   -1.05560454557342
H         2.75323346462240   11.06903400571717   -1.60534662377465
C         1.12208555740346   10.06000414407020    1.64589934074820
H         0.74941151523872   10.92551481607295    2.19560553274139
H         0.35620355926768    9.75282488336634    0.93482206012104

