70
CSD_code = NUNBON | q = 0 | S = 0 | Stoichiometry = C24H34CoN5O5S | MND = 6
Co        7.38517385118222    8.38837792525804    9.98905144163910
S         6.92342544369561    6.24499367315794    9.20511903700422
N         5.58007443795707    8.80420378052193    9.64229200104075
N         7.58762097589517    8.81406046860812    8.16857242573465
N         9.14203203201542    7.76215527581124   10.29422726251839
N         7.16633460474737    7.91013975365535   11.80410468441884
N         7.85409866707016   10.32140558821876   10.51674118529838
O         4.57408797626091    8.78706513490460   10.55283744426121
H         5.04410108310383    8.52460020101749   11.44320270731792
O         8.72791209722569    8.84964248193268    7.58710429119433
O        10.14973063852205    7.75789204017240    9.38659114587823
H         9.72810096301218    8.17260703611860    8.53997423668401
O         6.08129462703636    8.12030680017222   12.46715021124064
O         6.60434648398620    2.87205315872656   14.03585956674980
C         5.31323140055188    9.05524132203226    8.40167111251821
C         3.93665232311499    9.31410226107292    7.88747774272410
H         3.24876105144535    9.42016964605599    8.72200859391503
H         3.61633911626032    8.47568954573755    7.27076132742971
H         3.91644538451832   10.21331945248973    7.27551705446417
C         6.47131344043929    9.07651429113507    7.54852329973371
C         6.40639243758776    9.39100880729146    6.08815583701776
H         7.40616860139171    9.28846373687007    5.67173796814108
H         6.05266643256799   10.40805058058692    5.91775994764799
H         5.73418064421013    8.70126423259027    5.58119418808518
C         9.34348573913788    7.25495869729065   11.46748466196712
C        10.62983613031672    6.62694501439108   11.88956550566044
H        11.27013208041348    6.49472582326441   11.02119494152951
H        10.43683802636944    5.66377461537638   12.35642908020175
H        11.14305521600624    7.26030437782797   12.61296716139421
C         8.21558834334839    7.36604020580017   12.35387673446328
C         8.24904659659537    6.91049060394848   13.77723556658884
H         7.31829420779474    7.20979963470507   14.25447079568521
H         9.08975047091938    7.35215787636933   14.31013356516148
H         8.33668335676734    5.82580474599329   13.82645542858302
C         7.31516072062167   11.36736465359129    9.88898326241639
H         6.59114658785830   11.15774267172424    9.11559353745095
C         7.64066641814857   12.67645943050579   10.17761308823549
H         7.15823740871229   13.46037637563441    9.61642147297568
C         8.57377566831873   12.97207689918591   11.16997745554812
C         9.12073518056305   11.87375610338750   11.82434103090808
H         9.84694518872879   11.99099307126308   12.61049889972805
C         8.74050763629071   10.59184715050533   11.47239752329107
H         9.17544707566801    9.75097147544572   11.99214127647374
C         8.94237225199702   14.40783382655566   11.47988855074503
C         7.67606429251895   15.16467382677878   11.90496751579047
H         7.23627756950235   14.70166373984912   12.78572815274309
H         6.93127133381632   15.17143984110390   11.11417438419349
H         7.92540172179731   16.19527618975278   12.14572738863322
C         9.97415766851537   14.51437622818257   12.60507373063880
H        10.90083629002058   14.01321158806524   12.33557359233487
H         9.59133047311482   14.08818009912317   13.52947236840075
H        10.20163657043326   15.56189201117034   12.78856095953067
C         9.53191653956294   15.04381044298886   10.21265776004185
H         8.80766217749667   15.06237793801323    9.40313215519198
H        10.40360280324739   14.48477773763017    9.87930414013354
H         9.83709696329622   16.06655570731970   10.42016716159178
C         6.78597957002442    5.25173221734859   10.64605347236992
C         7.84766720894502    4.43299304810792   11.02419733644768
H         8.74360177785416    4.42077998432582   10.42204173936683
C         7.74826230107259    3.64801700937295   12.15071969839092
H         8.55985962522861    3.00645598039282   12.45902463254076
C         6.58607377832358    3.66673947991935   12.92581969149377
C         5.51843337237788    4.46909896466752   12.53614062854233
H         4.60490927360523    4.49903196579463   13.10843958294746
C         5.61891455705120    5.24771289664831   11.39894082421423
H         4.79088265196433    5.87187814836386   11.09956250637056
C         5.45876660365043    2.83346557641968   14.85031386367759
H         5.69597644735570    2.14497863612947   15.66013196390162
H         4.58790961601720    2.45998487055439   14.30196661572375
H         5.22911979484744    3.81904542504734   15.26850388311005

