63
CSD_code = NUNBEE | q = 1 | S = 0 | Stoichiometry = C32H25AuN2O2P(1+) | MND = 2
C        -0.24369331814264   18.24457707058415   12.06345397895021
C         0.30951988260577   17.17598004348977   12.92328046997999
C        -0.24406602873291   15.98319126191849   13.34012225423388
H        -1.23758806587560   15.69759964939578   13.03233206284839
C         0.52139441365020   15.17201796505839   14.17368767638790
H         0.11317023700469   14.23498562246832   14.52020033577542
C         1.79592100892230   15.54781541827761   14.56946091151701
H         2.36359122325141   14.89822621073368   15.21801861287288
C         2.35551305423838   16.75134195657804   14.14912741882602
H         3.34475274949179   17.05236958484266   14.45606320356798
C         1.59666270787919   17.55656868392497   13.32530917162648
C         1.89600513972157   18.87857734657886   12.73453266908277
C         0.59619613556152   20.47730314716037   11.33109021760923
H         1.17594297288782   21.23133305302654   11.87749132761789
H        -0.46418246526780   20.75255941447136   11.36239964689599
C         1.05725602058564   20.45795206490884    9.90362407347260
C         0.88671055679517   21.58772574928729    9.10447427154536
H         0.41802149743609   22.47406610030774    9.50150799744830
C         1.32187809660817   21.56842933040472    7.79754558171564
H         1.19814866294594   22.43221963090616    7.16250372517164
C         2.07415270272878   19.42030705798825    8.00226061590142
H         2.55062853370327   18.57358866166080    7.53203616897066
C         1.66790837096795   19.35344108613796    9.32002281474676
H         1.83178265985913   18.44654348206552    9.87952826614526
C         4.99499360189363   20.95247804450113    2.87472299439338
C         5.88470132297224   20.22140504451689    3.65961531742492
H         5.49827022481723   19.49479556219376    4.36415000051450
C         7.24468454477728   20.42442563335613    3.52826227449714
H         7.93611846040055   19.85517511635425    4.13056275950091
C         7.71883151107162   21.36347351347763    2.62390791873642
H         8.78118133374011   21.52352460126425    2.52343459000191
C         6.83412315632705   22.09856315959586    1.85182361087459
H         7.20617258444826   22.83105480698534    1.15188273249383
C         5.46980708424480   21.89744958976942    1.97190610010415
H         4.77744870554550   22.46906914109101    1.36974036557364
C         2.95858306586355   19.04919238629929    2.19425447397135
C         3.82033444883456   18.61620446338113    1.19078468161641
H         4.69915112322676   19.19605022899323    0.94431197120077
C         3.54397444878216   17.44031327090671    0.51615227600617
H         4.21012751710202   17.10124241538842   -0.26240746099637
C         2.41648938202969   16.70055277006874    0.83640037510277
H         2.20606371705094   15.78473698815159    0.30601068478320
C         1.55923499846325   17.13066437539174    1.83784407458249
H         0.68295673969564   16.55185010924001    2.08679414315284
C         1.83004716606749   18.30161272625360    2.52033965852121
H         1.17178731737793   18.64856197333073    3.30788056752113
C         2.37606739395374   21.86676454414116    2.11422408192463
C         1.92236670997151   21.63829838380428    0.81979982836512
H         2.06309278271492   20.67110507819726    0.35792840792362
C         1.28837861124811   22.65792368711267    0.13091405334180
H         0.93445465792905   22.48381906345777   -0.87370773663765
C         1.10795027421556   23.89601547346091    0.72597930508850
H         0.61256582461230   24.68637338800243    0.18367231705363
C         1.55838533766674   24.12329455537902    2.01819318489069
H         1.41547467829519   25.08839111367449    2.47998317588659
C         2.18687760176386   23.10977418162589    2.71521963536493
H         2.54261727660916   23.26953992749768    3.72629365960998
O        -1.29638365883481   18.32920509146503   11.48770314236570
O         2.88028388059000   19.56745584185578   12.79951438221596
P         3.23169997999335   20.60084611205829    3.08385222186182
N         0.75082205360717   19.22259171646198   12.01595644738044
N         1.90963509065452   20.50440768114253    7.24546725290076
Au        2.56060230142560   20.54427864802302    5.23465905798121

