66
CSD_code = NUNBIH | q = 0 | S = 0 | Stoichiometry = C23H32CoN5O4S | MND = 6
Co        8.68424530822992    9.92044196124855    2.52342128880742
S         6.76211725721745   11.20915609880084    2.33292042976516
N         7.51329442897739    8.44615939887430    2.52343428303508
N         8.37606115420357    9.84722284029185    4.38255909787032
N         9.84814867290282   11.41000154882839    2.52599555393810
N         8.86335966449354   10.11400038279778    0.65131416144253
N        10.27159713601678    8.67368148508360    2.63763571934250
O         7.24414103419962    7.78300951601409    1.45754248189011
O         8.92751477754205   10.67769992037393    5.30572978262372
H         9.54060151731955   11.30464567054937    4.74715527557560
O        10.33228765881406   11.91886082150776    3.60934703330337
O         8.27385985062486    9.32359587796739   -0.28218601294736
H         7.73923851209626    8.63568276639411    0.27241492312341
C         7.03289350613910    8.12854972830795    3.69018294251752
C         6.07328962860248    7.00183144965969    3.89890350316125
H         5.84605898138810    6.55927231350848    2.93164409504217
H         5.15226238718264    7.36533259239137    4.35075395005954
H         6.50142809002505    6.24016754809771    4.54975670254457
C         7.52109156141861    8.95509810329562    4.76052602100919
C         7.07135002417785    8.78046607113366    6.17165237826628
H         7.61102622284980    9.46869538528482    6.81649155373534
H         7.24453690802525    7.75789165648106    6.50180360242521
H         6.00444094397852    8.98532364471636    6.24330152409655
C        10.17632239982162   11.85550587434858    1.34814881323944
C        11.08881696290605   13.01988691557410    1.13928260047502
H        11.49083937459416   13.32012022615360    2.10444110483972
H        10.53953624782903   13.85914859964731    0.71415535561064
H        11.90516658203588   12.75900621483741    0.46811632666300
C         9.57737257895609   11.12083086417003    0.26716614400023
C         9.78166467846150   11.49372181114101   -1.16265369442237
H         9.07877825130110   10.94553515551900   -1.78480601731852
H        10.79577033142023   11.24521219629488   -1.47444395376235
H         9.63572626317566   12.56329866879393   -1.29382696226400
C        10.36683344698867    7.60620731143769    1.84740871528996
H         9.54955248849633    7.42147840609628    1.16329299610272
C        11.43934809170805    6.73417397211352    1.88011241093387
H        11.43260508712135    5.89583724805002    1.20476163967278
C        12.48969411467282    6.94763744376093    2.76701961531638
C        12.37228240995756    8.06892123407389    3.58775762195966
H        13.13621381682015    8.31557619041150    4.30723849924521
C        11.26910405286323    8.89215176789019    3.49525076675574
H        11.19660831468492    9.76592998062879    4.12827358489046
C        13.70144356943619    6.04394064104737    2.86834914353114
C        13.64246664777023    4.87619150831768    1.88087597956416
H        14.53341406781801    4.26281309053745    1.99378353778249
H        13.60928625217618    5.23220755558301    0.85384425705001
H        12.77646104149083    4.24607386959655    2.06943400889778
C        14.96007541931452    6.87169667270240    2.57152319241627
H        15.84069697757424    6.23598505613117    2.62238539967354
H        15.08307856201248    7.68041815547397    3.28636253147742
H        14.90331222806260    7.30177374729338    1.57374111632275
C        13.77341373862238    5.47636057949714    4.29316568494477
H        14.62820301378427    4.81040400337251    4.38276702862801
H        12.87180872841484    4.91172404709318    4.52125340180396
H        13.87883545727589    6.26622519159688    5.03155624724900
C         7.35047596196929   12.85564320236303    2.13257291971186
C         7.76124538263436   13.60017879032500    3.23320769913438
H         7.73274554212506   13.15541906607593    4.21635755623590
C         8.21467386154239   14.89286844807938    3.05659752799209
H         8.54609499684768   15.46492564510655    3.91074697034241
C         8.24378881811666   15.45644867942755    1.79061597365736
H         8.59950897746791   16.46803051375904    1.65662850674993
C         7.81130085265051   14.72319435782757    0.69692070876007
H         7.82236468320926   15.16503360608993   -0.29013248338557
C         7.36647354666875   13.42516269118780    0.86373249904182
H         7.02505095276930   12.84211401897875    0.02121473467362

