46
CSD_code = NUNLIS | q = 0 | S = 0 | Stoichiometry = C18H15CoN12 | MND = 6
Co        0.38646285257896   10.42260852575524   10.78365871738988
N         1.05331386041391   10.91177071929894    9.06996771854407
N        -1.25405157780499   11.15847822712654   10.14414975130816
N         0.94393729750980   12.07351112521102   11.49455575088802
N         2.09483501403460    9.80265540967890   11.37938806102078
N        -0.39417749174656    9.87208938505735   12.42784568537596
N        -0.15218690406143    8.66459411873457   10.16925674506970
C         1.85682421490976   11.43384807326905    7.08799051604766
H         2.48878849910123   11.57552923031654    6.23319282380643
C         2.16851736760314   10.87561185621902    8.31638305042274
H         3.09688664438853   10.47106868341116    8.67107887891906
N         0.56681807540836   11.81759102775093    7.06684083020514
C         0.11431057206652   11.49207575175398    8.27332255018721
C        -1.15086550140498   11.62417968473904    8.89846846032879
N        -2.32555903860508   12.14374959875961    8.49982056685794
H        -2.49745366255229   12.56358895213483    7.60171823332790
C        -3.20996208774862   12.00342798732721    9.53949201855852
H        -4.22270043852736   12.34282926978123    9.47721217312911
C        -2.53154190489548   11.39174727976430   10.54947696745110
H        -2.87643469109880   11.11311551082252   11.52511770940467
C        -0.12840014746196    7.86833577170689    9.06664549155902
H         0.32098424116194    8.18929670809968    8.14821094277156
C        -0.74149978429395    6.68788440378785    9.35854235379135
H        -0.91809663021476    5.81914659979959    8.75950648773375
N        -1.14689539513860    6.76985868673378   10.66716935430407
H        -1.63492209077364    6.07143252110164   11.20219294919533
C        -0.77580334741398    7.97879142942944   11.12740578451477
C        -0.92089796274156    8.61722244931830   12.38450975296070
N        -1.46907511598654    8.23129165308027   13.53255908660138
C        -1.28603105025710    9.28376156131600   14.35189835461971
H        -1.63321045204507    9.25994256667031   15.36629753469176
C        -0.62468739742083   10.30049966835389   13.68306731509633
H        -0.32033257081081   11.26893733273074   14.02930532948969
C         2.86137360032930    8.67922477457578   11.41103232132730
H         2.52919662145640    7.75082896111649   10.99122215560586
C         4.03974207578715    8.96411663857699   12.03145883386785
H         4.88856670037110    8.34876283625582   12.24516621166262
N         3.98750401326337   10.28823401467292   12.38412299350996
H         4.69264193721621   10.82410266145732   12.86163807396495
C         2.79864609166914   10.76598706378913   11.97599238160338
C         2.18457086539484   12.04042462556330   12.05448995926360
N         2.56768671320103   13.20598949651600   12.56334318291603
C         1.52877730194049   14.02645147906147   12.32002745393232
H         1.55442390235108   15.05405704448984   12.62539642266520
C         0.52162299314174   13.34114312393117   11.66185405828213
H        -0.43594621229378   13.68710551095279   11.32370800582746

