39
CSD_code = NUNMUF | q = 0 | S = 0 | Stoichiometry = C14H18CdI2N2OS | MND = 5
C         5.07101130703193   12.24191760473506   12.96433605784869
H         5.18608395047119   11.93761112309879   11.93086089697387
C         5.72885705756412   11.57210599612842   13.97922634223532
H         6.37073052078690   10.73608542544458   13.75037081938057
C         5.54625450687895   11.98689774020934   15.29614496126185
C         6.23175187017798   11.28594750596499   16.42177682889272
H         5.91320241255713   11.67869862738831   17.38367574484801
H         7.31025792070304   11.41085328739695   16.33279478087436
H         6.01979567293792   10.21875193210700   16.38652922790724
C         4.70946128316491   13.07322458657006   15.51586279930073
H         4.52182984185731   13.41409067703196   16.52237422043040
C         4.09575914393006   13.70277480502111   14.43650968664956
C         3.20433601407485   14.86579030301550   14.61170248525217
C         3.35007834589173   15.74937433175410   15.67540584310860
H         4.14518791034186   15.61412621126456   16.39205177612613
C         2.49958609947651   16.84346088482645   15.78435403527312
C         2.66637349648526   17.84363032710516   16.87876000341753
H         3.34524740080685   18.62874100098811   16.54463260395410
H         3.09357330720673   17.38514450082334   17.76728063033151
H         1.71556483672218   18.30590175215145   17.13230387105819
C         1.51207288128575   16.98667862285728   14.81480583672946
H         0.82131726417872   17.81454951794860   14.85246202214743
C         1.44263253373719   16.06881966901548   13.78151630568275
H         0.70255187384055   16.16315436834290   12.99652359063925
C         1.84030796831725   17.99437840320004    9.15836451523424
H         0.78521957743694   18.16335971994151    9.33861143023260
H         2.13525132387539   18.35110914728365    8.17909550932845
H         2.43539980360478   18.48350365114669    9.92236277009743
C         1.02497470401665   15.72900291460403    7.92900490446342
H         1.04526793034963   14.64734903838628    7.84813622029650
H         1.36091462401182   16.17277053621439    6.99976101672422
H         0.02879504536328   16.06558730434375    8.19078600377423
N         4.27453801035405   13.27706542468859   13.18426862725330
N         2.26816756707414   15.03913162661814   13.67299277598765
O         1.50109341477593   15.77601021434769   10.50404270320362
Cd        3.21242923313356   14.60702501396797   11.52069847976344
I         4.77450113778001   16.82285410466849   11.50698911897768
I         3.38524090555087   12.96323209730100    9.39364644742819
S         2.19018130224655   16.20279000208546    9.25407810687800

