63
CSD_code = NUNPIW | q = 1 | S = 0 | Stoichiometry = C28H26MnN4O4(1+) | MND = 6
Mn        8.94849445088980    9.03489149059864   -0.00006671059547
N         8.54776987354267    7.12545042243526    0.42346328925760
N         8.53924680664516    5.30610532202351    1.69615834584292
H         8.82217694071902    4.64204609884102    2.39683308063060
O        10.65849202127660    8.64307610970829    0.45458515128312
O         8.49636736113082    9.55497904967141    2.11677212716924
C        11.08326563323558    8.01484207643428    1.51142847865008
C        10.33863782510479    6.94877254920007    2.10095157163184
C        10.84670816130147    6.30054237646852    3.23297273486341
H        10.27661724524387    5.51045559351872    3.69946757265762
C        12.05393022612773    6.66677456038654    3.78184891494310
H        12.42150583864610    6.16742647016171    4.66385402426681
C        12.80865360970279    7.67366412957738    3.18315360876154
H        13.76695098247767    7.94371557659017    3.59948309057388
C        12.34180179208760    8.32573993337040    2.06784020557711
H        12.92343925039910    9.10308829359758    1.59524981488536
C         9.14153715746900    6.50027249025679    1.44145411297331
C         7.54529015237263    6.29057310944978   -0.02003298958304
C         6.65628234189169    6.41112806900182   -1.08470022758945
H         6.67616544353890    7.27865012943396   -1.72569269031279
C         5.75032373992825    5.38912500116609   -1.28101007322626
H         5.04609425314795    5.45568281035786   -2.09581961601658
C         5.72394387087317    4.26153621962483   -0.45744950427294
H         4.99880960255586    3.48703633987802   -0.65084254333767
C         6.61197238681142    4.11215923325864    0.58911713276442
H         6.60373744586871    3.23568777278118    1.21714199882103
C         7.52315848082410    5.13664219634689    0.79136489038274
C         7.15412142434651    9.54900136085676    2.59320109355823
H         6.67325656685314    8.66299176272089    2.18361103582092
H         6.60866111929184   10.43488027496548    2.25922710975507
H         7.14921703579694    9.49860314578676    3.68554637314338
H         8.92537779875414   10.35174402942767    2.45987100048975
N         9.34923075946958   10.94432668681869   -0.42347308357547
N         9.35781210440113   12.76377601471779   -1.69601534102641
H         9.07492812217590   13.42788129148180   -2.39666480355559
O         7.23850202439804    9.42673392095699   -0.45478218504966
O         9.40051252626430    8.51480790961198   -2.11694460945325
C         6.81384241612152   10.05497669517845   -1.51166893273155
C         7.55853130276355   11.12105019014761   -2.10111347654163
C         7.05059270400868   11.76928097471285   -3.23319208700721
H         7.62074713629393   12.55936042846005   -3.69962177091829
C         5.84343271170683   11.40305141879688   -3.78220491255580
H         5.47595989820361   11.90239511819528   -4.66425508972392
C         5.08863869741467   10.39616964102760   -3.18358598434037
H         4.13038542303724   10.12612221129509   -3.60001932166762
C         5.55536278065690    9.74409377748337   -2.06821836208905
H         4.97365936441960    8.96675639095892   -1.59569124587635
C         8.75554944076580   11.56955937082793   -1.44147593705048
C        10.35161831851616   11.77921432018639    0.02021214856887
C        11.24050057509804   11.65861714757880    1.08498007815150
H        11.22059312959137   10.79103877849286    1.72589741086319
C        12.14637704137472   12.68065468290900    1.28149106445667
H        12.85050646241788   12.61406597356450    2.09638459179143
C        12.17279590134839   13.80831441044855    0.45802934815874
H        12.89786060108815   14.58283972864049    0.65158095993279
C        11.28489207548055   13.95772915579485   -0.58863819867220
H        11.29315845416262   14.83425526079430   -1.21658649491906
C        10.37378696188281   12.93321385812594   -0.79108756796853
C        10.74275028832093    8.52068366722001   -2.59341128014946
H        11.22357197626132    9.40687075786488   -2.18404210273447
H        11.28826347282351    7.63486322510433   -2.25914232942167
H        10.74762420755197    8.57076276427213   -3.68583596305882
H         8.97150628312483    7.71795023043579   -2.45988692560549

