50
CSD_code = NUNWEZ | q = 0 | S = 0 | Stoichiometry = C24H16N4O4SZn | MND = 6
Zn       -1.74861686364443    3.00538883351051    2.97186213875752
S        -1.73003968077098    5.45010849364535    2.49836547365651
O        -0.32096733393858    5.51769005537888    1.75762951760692
O        -1.49575265619514    4.82957096231694    3.81336681702991
N        -0.04961832437078    3.17868293595854    2.06343926727994
N        -0.67606375899431    1.85230142065094    4.31183818964699
C        -0.06516158011938    0.62764731156450    6.26278001341217
H        -0.39382290419655    0.05024913711938    7.11321218383277
C         3.28770747540983    2.76817272286303    3.56118457025257
H         4.31329184840743    3.04501515929043    3.35879151891910
C         0.14093653141256    4.26783411897111    1.16458672908930
H        -0.50698245564456    4.11218627398601    0.28790654521186
C         1.65872287479739    1.64104362412627    4.92883267412024
C         1.56872712422392    4.48981509147594    0.77204187248216
H         1.73403356242343    5.09644719299123   -0.10344792313525
C         2.29289172530792    3.22556511125115    2.68968427010840
C         2.56969577398340    4.02113772143939    1.52191737362964
H         3.60209508186353    4.20736163111855    1.25935394475809
C         2.99398031663971    1.98555842533445    4.64958288361938
H         3.77445836392230    1.63643603500014    5.30863165392459
C         1.26533218987405    0.87780396694017    6.04545503091075
H         2.02086728698369    0.50628175821217    6.72353655280358
C         0.94614647067419    2.87414362986929    2.90534169796971
C        -1.01046733322390    1.15253962645069    5.37393784194707
H        -2.06799566924627    0.99478503823632    5.53364383722400
C         0.62370458857972    2.09122628476318    4.06010831577052
O        -2.22194198264032    6.78501753609959    2.56277008658987
O        -2.56033610801306    4.51493004150283    1.72360431372176
N        -3.67288884510987    2.98192589675046    3.85142877041495
N        -2.80966157149426    1.67792027044670    1.67268334840511
C        -3.16297738008038    0.75874664032267   -0.49718243778186
H        -2.73757407020799    0.25608166095797   -1.35158936578112
C        -6.77258918369738    2.92044027090852    1.84097755953381
H        -7.78964627855295    3.27893788251594    1.90375437159431
C        -4.04612128172133    3.69724194214788    4.88755219344449
H        -3.29118349772833    3.87231083266031    5.63995139822631
C        -4.99747774542904    1.77970428156936    0.65684975644258
C        -5.33714901102555    4.21942847794906    5.02292535312774
H        -5.58731927532927    4.81035343549468    5.88976006620637
C        -5.88838727519052    3.21451437222245    2.91956553081807
C        -6.26448474253031    3.97509980182729    4.03954328839810
H        -7.27031842960449    4.36454494847356    4.10736813793869
C        -6.34726636507164    2.22609995210592    0.75851512128045
H        -7.01710740405143    2.01511640189017   -0.06231347233311
C        -4.48976341902466    1.11511795311260   -0.47192798612808
H        -5.14286802142597    0.90447387356938   -1.30682215805426
C        -4.55718613598461    2.75065354356120    2.87108209526137
C        -2.35520225414379    1.06884273109782    0.60201749083616
H        -1.30471929379138    0.81473874413460    0.61161713522024
C        -4.10033308230202    2.03526594622466    1.71618641178000

