110
CSD_code = NUNZUS | q = 0 | S = 0 | Stoichiometry = C54H43CuN4O5P2S | MND = 4
Cu        8.96160256327764    6.54406534950841    2.73397004385037
S        19.99303050584733   12.25510415134525    3.69684177805626
P        10.83615127152562    5.19428073103915    2.67392758691785
P         7.47081537482679    6.35322277467457    4.32423637294540
O         9.17592771671085    7.58232859267905    1.01309056542328
O        10.44202837072279    8.13555630805308    2.70863587017869
O         9.65463646239947    8.52603749635117   -1.31807754322889
H         9.20000141164943    8.03803605793106   -0.57699437459290
O        19.88370863299210   12.82062264116582    5.01815027283290
O        20.66430066567109   13.04102825142758    2.69254376877561
N        14.27271334238059   10.79299185443949    0.62816790094694
N        14.65637594050176   10.54034230942965    1.81379014686406
N        20.67165003379153   10.74243498785426    3.77951978621614
N        22.39700014006510    9.33457185784214    4.22707336421701
C        10.17483982524861    8.21171872636414    1.49491257929136
C        11.04250222200739    8.99241637940394    0.58176026744031
C        10.73971140908082    9.09269731266515   -0.79238917645745
C        11.60658542529023    9.80752408626405   -1.62898635137889
H        11.35072226918222    9.88793578323334   -2.67416611623977
C        12.75203181189793   10.37307411660728   -1.12852830249221
H        13.43109557200957   10.91103184342290   -1.77212563914991
C        13.08262671327191   10.23760438178226    0.22941055333025
C        12.20154513081018    9.55662567501426    1.07563787242672
H        12.42993072286896    9.46877211607144    2.12680068479351
C        15.88942582390592   11.01530720507186    2.19519670629452
C        16.94122012294437   11.22401899733724    1.28964858562267
H        16.75089831018139   11.06759471972342    0.23838874256815
C        18.18110694128358   11.61073059952565    1.75204070530501
H        19.00860247827351   11.79185207050811    1.08412417881686
C        18.37509768328260   11.79408908463517    3.10924347433121
C        17.35318902479996   11.58807050049347    4.01869672072048
H        17.55567603101877   11.75170621440215    5.06537424157901
C        16.11239122268735   11.18876548562506    3.56785561598042
H        15.29223811695766   11.02673938942234    4.25023765865689
C        21.89287113570927   10.61357531501350    4.17958957515615
C        22.79480779700214   11.65189174323246    4.58336634803158
H        22.41415400390752   12.65892893071652    4.55159060077994
C        24.05736938908241   11.35758636813446    4.98035011184170
H        24.73195943610043   12.14425327838171    5.28309396672735
C        24.51205177080437   10.01423279515102    5.00424292676176
H        25.51413796661971    9.77828018865613    5.31861504906177
C        23.65498612963136    9.03511161405266    4.62162751883543
H        23.92617245572132    7.99004617120050    4.61224501031614
C        12.22199486239725    5.87770730418896    1.71524070871552
C        13.32972963784411    6.49599907822955    2.28165188761156
H        13.45107910841259    6.51195635818786    3.35524012125029
C        14.27264719670824    7.09934028984219    1.46772350763205
H        15.12707484966313    7.58975772545206    1.91088175410708
C        14.11471449661243    7.09414084647529    0.09182647372413
H        14.84875347535698    7.57518268442695   -0.53730917167657
C        13.00783175898700    6.48435841113396   -0.47729905796096
H        12.87678975209039    6.49019936353595   -1.54950280716141
C        12.06019068095398    5.88626896439831    0.33030598054446
H        11.18149681728029    5.42358483782304   -0.10285205035480
C        10.81808609527774    3.45558142627459    2.11842459151395
C         9.59076713544132    2.80142155885674    2.14093908732338
H         8.71044679167598    3.34844285714238    2.45577510728833
C         9.50108457328697    1.47384240809550    1.76462116052986
H         8.54622709005609    0.96941270209276    1.79031234953711
C        10.63675794047784    0.79749847622108    1.34977963629211
H        10.57006720179874   -0.23838422423256    1.05126397422622
C        11.85927624514248    1.45013593528736    1.31052847139635
H        12.74245218421368    0.92161222675777    0.98181908509649
C        11.95475648329590    2.77525760571869    1.69434902629595
H        12.90774762586286    3.28564831878958    1.66841301859991
C        11.48544519566340    5.05323881584271    4.36908683609028
C        11.79701505404480    3.84443159005364    4.98185217000472
H        11.73887695115371    2.92153125455067    4.42247289245921
C        12.17348615148803    3.82535798601675    6.31376159530387
H        12.41559705442600    2.88454394467111    6.78710061049067
C        12.23585662899898    5.00242357207844    7.04124964321207
H        12.52494881935438    4.97881525303538    8.08167861118180
C        11.92130735134351    6.20880565100052    6.43525591986959
H        11.96164980981128    7.12691535273088    7.00260037632576
C        11.54023309625224    6.23540212605918    5.10752770394657
H        11.27302937888972    7.16546384891287    4.62540326506857
C         8.08737491259760    6.98128981867213    5.91764608287592
C         8.83611487919704    8.15386769859422    5.85625802377947
H         9.03158312406006    8.60369563941455    4.89114689943100
C         9.34117834796327    8.71581202941806    7.01333520983574
H         9.92205435379219    9.62497686042724    6.96283822200986
C         9.10905893700240    8.10537427406455    8.23566380555675
H         9.50794226439681    8.53894142696965    9.14108006433658
C         8.37066001071255    6.93507286646130    8.29851239334972
H         8.19417979419545    6.45851477326836    9.25198916996814
C         7.85564529498392    6.37111770352083    7.14491732372304
H         7.28597596181965    5.45356243777758    7.19809876616616
C         7.06942510841446    4.61939245482338    4.67455799902643
C         8.09891745160177    3.81422959717747    5.16206913221929
H         9.05324639663443    4.26536709797000    5.40220702777712
C         7.90051937757983    2.45843599860602    5.33257261218129
H         8.70132722873640    1.84178306594178    5.71330567553941
C         6.67814628064686    1.89113105553480    5.00480746822841
H         6.52302321272701    0.83039374197403    5.13505397407486
C         5.65871079585308    2.68348491929930    4.50341642140552
H         4.70934446553121    2.23986710812010    4.24097951028349
C         5.85142957998812    4.04326554556422    4.33059862819616
H         5.05895449328473    4.65990878081517    3.93000945783330
C         5.84930400139744    7.17309887511426    4.19734038215521
C         5.55803154866564    7.82087473258175    3.00154289162603
H         6.29389879504821    7.80446257560316    2.20598524753030
C         4.34783942761503    8.47329800387504    2.84588204761891
H         4.11968983274192    8.97641476018257    1.91795119188688
C         3.43135695109916    8.48197393992754    3.88454908687930
H         2.48656476965445    8.99158076330132    3.76572173003452
C         3.72344514435797    7.84225631117866    5.08007642406724
H         3.00645031582854    7.85587403643277    5.88803348286899
C         4.93084347477870    7.18925732873373    5.24247426543841
H         5.16622723122701    6.69260996852666    6.17346419619266
H        21.75492936645343    8.60731480598084    3.94106305914521

