82
CSD_code = NUPFAH | q = 0 | S = 0 | Stoichiometry = C43H33N3O2Pt | MND = 4
Pt       26.33000456676170    7.13819717851978   19.22492367178776
N        24.93225710811447    8.52293401897648   19.14557178510672
N        27.62012499201562    5.62128212657489   19.41175562378452
N        26.96012991813270   -1.32033185529341   12.42299552340751
O        26.75168762452200    7.63404012209789   21.24513077330870
O        31.08207205565170    6.41775095740186   24.37433168343436
C        24.63632177592095    9.32162999048853   20.16784370514334
H        25.29395047048875    9.26227048277542   21.02535644974958
C        23.55443480566328   10.18109753718620   20.15247498640867
H        23.35604530627367   10.81731209177533   21.00003318588610
C        22.73633919998361   10.20229140667354   19.03000116180676
H        21.87681342812178   10.85445092797419   18.98779209341429
C        23.04505484061417    9.37905195545744   17.96508305709714
H        22.42847134544066    9.37908301965386   17.08086975884801
C        24.16041914694445    8.54416543984821   18.03231400323550
C        24.66562880092527    7.70435812336031   16.95782758553425
C        24.10804877274871    7.66421753894629   15.68010586029724
H        23.19071439381071    8.19279259406954   15.46536437332341
C        24.73384495926973    6.95346097821304   14.67752639586181
H        24.29817238024617    6.90629578857154   13.69010738802011
C        25.94313134006013    6.32830590080947   14.93959159133792
H        26.46199548263094    5.80859820207823   14.14639408285844
C        26.49022788162710    6.35604583670559   16.21156436392120
H        27.44097178313218    5.86768426996520   16.36180979815766
C        25.85011033219627    6.99274630690441   17.27331691225135
C        27.77889516349297    7.29328249022279   21.91731350206373
C        28.03733874018644    7.93903950366448   23.16123450061611
H        27.34279106231511    8.70436553633744   23.47520024848339
C        29.12157049219289    7.63102982461955   23.92409019919528
H        29.31349966627090    8.13971687110908   24.85633075838135
C        30.03057187325790    6.63011092759496   23.52030977978881
C        29.80447286680694    5.96082892523321   22.34804544300840
H        30.47022133153344    5.17969641912658   22.01185434928178
C        28.69732157445066    6.27183786381984   21.52113509505536
C        32.03433550598109    5.45055064685448   24.01764365364497
H        32.78488014669399    5.46765659673380   24.80644680786069
H        32.51132224528583    5.68829693597091   23.06035156910657
H        31.59218024712457    4.44953269411278   23.96168893421540
C        28.50647085748219    5.48627130701335   20.36392435432515
H        29.16106100339378    4.61345133908379   20.29473895181816
C        27.56787819136948    4.58218796984677   18.46280055292070
C        28.70535251058691    4.13066180789501   17.79735223841816
H        29.66326409588927    4.58733020287646   18.00308630970725
C        28.60042518783167    3.14979561293406   16.83135801791956
H        29.48790000324221    2.81870439590507   16.31226577267566
C        27.36912176079806    2.57462329572542   16.52381079486618
C        26.24159769310091    3.00207366301336   17.22543324289119
H        25.27827003084832    2.57160577231594   16.99704012422278
C        26.33599866734741    3.99512845101512   18.17647975142983
H        25.45846628087912    4.34642274851618   18.70713581158391
C        27.26314741488607    1.55999418066317   15.46946834530037
C        27.97767875904286    1.69622808420678   14.27975224677572
H        28.59580959485767    2.56876393491174   14.12755582552617
C        27.87558535983623    0.75802373975783   13.27538823184927
H        28.42036600985996    0.89104223410042   12.35209632335968
C        27.06215751626295   -0.36460097043259   13.43587752966309
C        26.35131166949526   -0.51082815307481   14.62815532935852
H        25.72839078405123   -1.38182138433158   14.77062541055770
C        26.44529130857804    0.44135526849453   15.62067914601534
H        25.90050234197018    0.30106346533044   16.54270467166843
C        25.74243388226986   -1.97085866228501   12.19020205368309
C        25.72006970169169   -3.32100448856550   11.84136724043454
H        26.65081771993610   -3.86320185489739   11.75889151204201
C        24.51763422466129   -3.95924684631599   11.60804238023112
H        24.51411804973231   -5.00602308978741   11.34159400199616
C        23.32219045154973   -3.26899028783611   11.72405035374797
H        22.38426368221899   -3.77197284187861   11.54406258982680
C        23.33894628346782   -1.92842932695023   12.07302316892977
H        22.41211784392326   -1.38042090978656   12.15866077762264
C        24.53652436431002   -1.27921042101047   12.30129334069782
H        24.54783257051546   -0.23112239263357   12.56240729508613
C        28.07198140243551   -1.62636315712614   11.62909422067177
C        29.34800927358036   -1.68503085791989   12.18886686204361
H        29.47310048527802   -1.49669002025820   13.24521087153690
C        30.44057338994939   -1.98683738441285   11.39946801842532
H        31.42312672939208   -2.03263022229161   11.84595109018227
C        30.28117094908785   -2.24128483757516   10.04709976098153
H        31.13711324068591   -2.47985243532014    9.43422847769638
C        29.01530787957287   -2.18787542286538    9.48691141653216
H        28.88214271384988   -2.37887457157777    8.43214046899143
C        27.91743642058468   -1.87992223135965   10.26636632193085
H        26.93236807287731   -1.83021087817521    9.82570813913676

