82
CSD_code = NUPRUN | q = 0 | S = 0 | Stoichiometry = C43H33N3O2Pd | MND = 4
Pd        1.65742446732953    8.94092268124529   12.60643953920192
N        -0.21369338075273    8.38246359155796   12.89322318461319
N         3.63135818561007    9.28214764239777   12.34427009948489
N         7.25794669662045    5.26368786891857    4.08402723303296
O         2.02161384218965    9.17133563496019   14.71201981050494
O         5.82428369511323   12.24621791936754   17.19647136008234
C        -0.71763312472453    8.15175538600896   14.10137225697138
H        -0.09113983410595    8.42902513789448   14.94355920943712
C        -1.97056571767894    7.59449574275544   14.28719324122635
H        -2.34768186969025    7.42619682009660   15.28311274665785
C        -2.72164620479227    7.25804163826545   13.16855487506831
H        -3.70032910287155    6.81488791408648   13.27681482171239
C        -2.19818932616354    7.50085604188208   11.91351376928270
H        -2.76179985326144    7.24646029235397   11.03048475488090
C        -0.93133346037074    8.07320271694718   11.79031251732764
C        -0.27282888201050    8.44191687076798   10.54429506930995
C        -0.88113492797600    8.35823985281409    9.29145937282156
H        -1.87086602209542    7.93693978124509    9.19007854413734
C        -0.22382600231652    8.82821417127911    8.17328015116816
H        -0.68930631263018    8.75854859184376    7.20091113849483
C         1.02572161455873    9.41303392161704    8.30883715267334
H         1.52876530597095    9.81126380627647    7.43881207992824
C         1.63809303322165    9.48764546659543    9.55032210838369
H         2.61085333972853    9.95889575659091    9.61184223105077
C         1.02937188452145    8.97654985643912   10.69446641259864
C         2.93921940670320    9.90556489992473   15.20657579359062
C         2.82739365580523   10.32845633878235   16.56470529141338
H         1.93944047034156   10.02809579407072   17.10167343483909
C         3.77685177834499   11.09391914822074   17.16860398207012
H         3.66822739212641   11.41774503331144   18.19241702603234
C         4.94150851564988   11.48316386485919   16.47452915614395
C         5.10682313446495   11.07981601227376   15.17678803279062
H         5.98849917048739   11.35269693693479   14.61562514462688
C         4.12584954494963   10.30741120880635   14.50902995312954
C         7.00712939169636   12.65891116159683   16.56478615751535
H         7.62028546832566   11.80410564765197   16.25796618870787
H         7.55143428631358   13.24319994857139   17.30530594392442
H         6.80012577499821   13.28665034929910   15.69084134007273
C         4.42105567247891    9.87443361812081   13.19440906300509
H         5.46658949363929   10.00162482748908   12.89549070153221
C         4.19217881065819    8.75128908446448   11.17451320433622
C         3.78080655960323    7.47495671165069   10.77572375116948
H         3.05377925814734    6.94503717285488   11.39776817572793
C         4.28691941032267    6.90369724929153    9.62928975254836
H         3.94656571106584    5.92530507981744    9.32510350607369
C         5.21052492578172    7.58716581186279    8.83602970383817
C         5.61731644630718    8.85745505779263    9.23870461130054
H         6.33939645018924    9.39840902537539    8.64486443118093
C         5.12724574133866    9.43127363113962   10.39501498078419
H         5.43766600228032   10.42885992615046   10.67249946925711
C         5.73718321004671    6.98554138759700    7.60593884476402
C         6.05462418906754    5.62894750949353    7.54992945721312
H         5.92213865139119    5.01403803280990    8.42781020837872
C         6.55343708740665    5.06053908234851    6.39744889604214
H         6.79174413527756    4.00720799503439    6.37265266703108
C         6.75262199342227    5.83554977147834    5.25415057453736
C         6.43593992725839    7.19373222482245    5.30343852681863
H         6.58682570468216    7.80598760185408    4.42632395096783
C         5.93732250851837    7.75417970435266    6.45991709309366
H         5.68452181456236    8.80407834736858    6.47128534474724
C         8.21919619623200    4.24865346143029    4.15640188214126
C         8.19248941146629    3.18485749998029    3.25486172652180
H         7.41780503337272    3.14562649147882    2.50301468418230
C         9.14628966255568    2.18840082765430    3.32567821231727
H         9.11256011883077    1.36909377350716    2.62260688898739
C        10.13380472694074    2.22927183686693    4.29631999642971
H        10.87547701197815    1.44691291530779    4.35057264322102
C        10.16257681306735    3.28167024221767    5.19664294863496
H        10.93222749439906    3.32508888373269    5.95329813407698
C         9.21833126659163    4.28740909483995    5.12877549498130
H         9.24914710140685    5.11219668426618    5.82568451100365
C         6.80189750291432    5.70221841816605    2.83512510356642
C         7.68097785610827    5.80039284785027    1.75687566140803
H         8.72081634879738    5.54202447945323    1.89452205115816
C         7.22596861607104    6.22763432828600    0.52471105500675
H         7.91790375207470    6.30104492534802   -0.30146030404276
C         5.89560459674551    6.57098589386217    0.34795479193248
H         5.54448666239534    6.90742268538049   -0.61571053965330
C         5.01919072306722    6.47910717626176    1.41680901718051
H         3.97883030233746    6.73905994534728    1.28709212513466
C         5.46256696980774    6.04492089176856    2.65076016062555
H         4.77490209590369    5.96431639527801    3.47993571585532

