72
CSD_code = NUPROH | q = 0 | S = 0 | Stoichiometry = C37H29N3O2Pd | MND = 4
Pd        4.38793184619254    3.22784553566309   13.95403176069784
N         3.95858626245859    1.55013040762246   14.89715121550958
N         4.98902547457562    4.80278250565011   12.84172165400887
N        10.35134764619415    6.03024269547599   13.83834310149140
O         2.86967003521332    2.92274384387772   12.46544018124676
O         0.38003717959964    6.66574608104720    9.32007131258251
C         3.07781755847481    0.66971165789850   14.43276602498305
H         2.48008071539244    0.99095507397975   13.58522922917308
C         2.92076258358912   -0.58608133182161   14.99257750954035
H         2.19137150475174   -1.27174757876003   14.59227940168731
C         3.72114176842879   -0.93839799144862   16.07146723145156
H         3.63004727038902   -1.91272850776328   16.52788346442965
C         4.63496270774448   -0.02184145232782   16.55454874276986
H         5.26804545191998   -0.27350515311876   17.39003852559680
C         4.74039373693114    1.23324432008455   15.95385845069860
C         5.59854762242379    2.32649423322097   16.39146894100343
C         6.37451950416401    2.29025982828647   17.55052145196187
H         6.43850156025546    1.38658664937036   18.13925946409113
C         7.05260099306450    3.41933959713868   17.96120906621359
H         7.65623221633023    3.39473826802262   18.85689741849802
C         6.92847332285368    4.59487058199313   17.23621681764832
H         7.42057613639319    5.49313837680227   17.58376726665658
C         6.17879593509665    4.62747485867323   16.07028010899080
H         6.10783470958926    5.56529376020948   15.53307372234895
C         5.52474768286168    3.49329836491501   15.59355923164486
C         2.35113445538508    3.85504071937146   11.76584430130965
C         1.08917426212204    3.62591267480517   11.14126357254606
H         0.61748701647209    2.67100337718651   11.32205997621277
C         0.47954079232062    4.56395009622982   10.36595230056726
H        -0.48317104816869    4.37872940442705    9.91460990300260
C         1.09307132302056    5.81009181088734   10.12172905298172
C         2.31827160033685    6.06650939374896   10.67633522051960
H         2.82259199942197    7.00625821367012   10.50524432528088
C         2.96799946515191    5.12408794157494   11.50932375718840
C         0.93887825772219    7.92096830498015    9.03640956606299
H         1.09654444834206    8.50797413565507    9.94814058235526
H         0.21630077301629    8.43161112543852    8.40143965035655
H         1.88914088758330    7.82755343057289    8.49868334749999
C         4.26659804051995    5.44720545758735   11.97078340940484
H         4.73045078176303    6.30670839973067   11.47613175314437
C         6.32959397840060    5.16765249011577   13.01685546000152
C         7.27147068291098    4.13825954617286   13.13699922379895
H         6.93193555319937    3.10482607165172   13.02685938717138
C         8.59569831160352    4.42233266383568   13.37658721017393
H         9.31497115664592    3.62250683499464   13.46764402104276
C         9.02102733649197    5.74610891060332   13.52198382221808
C         8.09028528548754    6.77316458373263   13.36734312077163
H         8.40851551692679    7.79927342778760   13.47798323897934
C         6.76538510470101    6.48953066556062   13.10480272329688
H         6.05280096738874    7.29897155317883   13.03575490963066
C        10.97061800118596    7.16310579074192   13.29762953042000
C        10.71297040594575    7.54228448587765   11.98020884776999
H        10.03761931666672    6.94930031755648   11.38090793777680
C        11.31999854227291    8.66212273035630   11.44633567917319
H        11.11378625173860    8.94284380997843   10.42387091292711
C        12.19651553286016    9.41640243647705   12.20916124076587
H        12.67227670598281   10.28865740639670   11.78741736380824
C        12.45781916179930    9.04291302558188   13.51731184795566
H        13.13491922441849    9.62859776712893   14.12162040087326
C        11.84906296472229    7.92953674264015   14.06303693047378
H        12.04644576695461    7.64730166841119   15.08676109207280
C        11.04218285326314    5.20690082056026   14.73572939554764
C        12.40957508675831    4.98126738247755   14.57885822499591
H        12.93310615476199    5.43902055778900   13.75228043009379
C        13.08899344641849    4.17538438179078   15.47171870924088
H        14.14799792875940    4.00967840463631   15.33812663652024
C        12.41997868248187    3.57359441986481   16.52490895146596
H        12.95460962015208    2.94223777826419   17.21828780197743
C        11.06002154871903    3.78739022352350   16.67937612782929
H        10.52618714911374    3.32450171211354   17.49613160662081
C        10.37315503503598    4.59975992538259   15.79883919634480
H         9.31411224497212    4.76467235342923   15.93065600518762

