65
CSD_code = NUPTOH | q = 0 | S = 0 | Stoichiometry = C26H34Cl2N2Pd | MND = 4
Pd        7.24626105419838   10.73550508001036    5.54632244497993
Cl        6.17388828875846    9.12443006192715    6.80415077550714
Cl        8.83647666719544   11.84509212291741    4.28921487999739
N         8.06738973742806   11.51585230543783    7.22993315381860
N         6.50617879838475    9.88227771980507    3.86208918179842
C         8.15433617740993   12.94088611453735    7.53528641999659
C         7.37795758805428   12.01901440454034    8.41349998233663
C         5.86453256719688   12.01028438693600    8.37711849689820
C         7.94521005452746   11.57539970705578    9.74418431678956
C         7.44478824820251   13.86134081728538    6.54150083088780
C         6.88379664287766   15.07721385647553    7.20536487770658
C         5.60839987768056   15.41511007412457    7.18555372606635
C         9.48614416913717   13.47230996188424    7.96320085094379
C         9.61027035173270   14.26065507823292    9.10069423027784
C        10.84625968809131   14.76740441453315    9.46123927083257
C        11.96263146507335   14.49283873328479    8.68916095056779
C        11.84043986680657   13.71671974893758    7.54880311181486
C        10.60656852490071   13.20945256486378    7.18321743240241
C         5.09155727854723    9.73762965953551    3.53576739436251
C         5.99380720804863   10.55208470925978    2.67134957672663
C         5.96602689024757   12.06512757434576    2.70375501395831
C         6.47079401323520    9.99823654875883    1.34619645879077
C         4.11042948174565   10.38276167431905    4.51409191058238
C         2.87048164678970   10.83787077771956    3.81242367761203
C         1.69439195524477   10.25610762741338    3.95128897335210
C         4.61935881582043    8.38972506677366    3.09031887828774
C         3.78338948138155    8.26077288093306    1.98843903720419
C         3.32512393888611    7.01181579662713    1.60958815057796
C         3.69397775990703    5.88776105543601    2.32955160653896
C         4.51462807679974    6.01500185013917    3.43760717336940
C         4.97448458435259    7.26207312325943    3.82093769257286
H         8.92458526924641   10.99697203559342    7.44825345000511
H         7.06268884211867    9.04704438071653    3.65115643981248
H         5.49240769560005   11.13064383615434    8.89714409312717
H         5.49831887461725   11.96137230164501    7.34886680133352
H         5.47174796391747   12.90474728253239    8.85634075928004
H         9.02975475890059   11.66080258492786    9.76840262566562
H         7.66968942101390   10.53666464653430    9.92269387486966
H         7.53207396187435   12.18062034000093   10.54784015511764
H         8.18279957150602   14.15971800486214    5.78999348085073
H         6.65119192346336   13.30249877743173    6.02249269267185
H         7.60886430468519   15.69597598973767    7.71731457876986
H         4.86934834079474   14.81719303358276    6.67695121605305
H         5.24688308222191   16.30699554119656    7.66795147163358
H         8.73833007660171   14.47221787297325    9.70222386875879
H        10.93773041415648   15.37785035144767   10.34756895497447
H        12.92639438066491   14.88802795503069    8.97413525568354
H        12.70699644810063   13.50834243667131    6.93936809335918
H        10.50166712280412   12.62284498334439    6.28115823216124
H         5.85383421050450   12.43922036882448    3.72378170972244
H         5.15130601833964   12.44127723071033    2.08823680401764
H         6.90690511975418   12.45129913184080    2.31699293360893
H         7.49968286313126   10.31206034883551    1.17436346413181
H         5.85651553659538   10.38311228990698    0.53537083575606
H         6.42529880374281    8.91123379673480    1.32637139370814
H         4.60420906131556   11.22917246887540    5.01659241639719
H         3.86364125844421    9.64157515059842    5.27753213295950
H         2.98892234766143   11.68339874328783    3.14787041189513
H         1.55815439466918    9.41015351490622    4.60435493688081
H         0.82014977319760   10.60015800572267    3.42548671409082
H         3.49435994795577    9.14006083146178    1.43254167829168
H         2.67765372828487    6.91592851577893    0.75057050180260
H         3.33604023477043    4.91366390276381    2.03071303981683
H         4.79387605086263    5.14213243031866    4.00857728839997
H         5.59179729951116    7.36926541834058    4.70203721740313

