82
CSD_code = NUPVUP | q = 0 | S = 0 | Stoichiometry = C38H16AgBF24I2 | MND = 6
Ag       -0.56282274704296   -3.31147099804883    9.54702965857792
I        -0.93981601563002   -6.02820014006351    8.47836109981739
I        -2.32938017866926   -4.34900385249529   11.59166421349404
F        -4.92422560485136   -2.88838679925914    6.11004389817508
F        -3.65020076334244   -4.58075760463436    6.49111236133702
F        -5.10605020784556   -3.98400189682540    7.95234380137054
F        -2.73185067909854    0.92838989518898   10.65012132495690
F        -3.99792322544533   -0.69349319998295   11.28532200059242
F        -1.87660819634637   -0.77846595495252   11.64633722958430
F         2.28864693354011   -5.83732342382944    4.91682481264856
F         1.50480033929841   -7.05058482056698    6.51094921832053
F         3.61714369394407   -6.65820775082059    6.39791302152128
F         1.43920244223427   -3.85989225502430   11.36032890496700
F         3.26483712790210   -4.99144985699368   11.12411032504657
F         3.32694374042733   -2.84133701583173   11.14993184579774
F        -3.06779257681413   -1.44561770178924    2.68954926664986
F        -2.82730622500740    0.61324904565176    3.25252358762183
F        -2.12497714408608   -0.06532344818956    1.33484865554249
F         3.61442849299481   -2.14909188386949    2.91793957651018
F         3.23688692323870   -0.24480360099155    1.99243710253446
F         2.43854906003526   -2.04024853424604    1.12042259139366
F         0.05418426624989    4.21252895831324    6.35828566216665
F         0.61143531322205    4.66356116006188    8.38554565874727
F        -1.12162449337656    3.45267825324697    7.99005483496774
F         5.29872097291681    1.09181207591752    7.09992555280297
F         4.90321422837807    0.50852668405658    9.12931898253459
F         5.00777816357659    2.59465456237256    8.61188324199666
C        -3.47917108988260   -5.57987077510129   10.26231238866954
C        -2.96507350389756   -6.19858166599076    9.13087853664483
C        -3.79608394323831   -6.98604329029322    8.34359201936188
C        -5.12756507916263   -7.15295824510700    8.67505281116293
C        -5.64017680870531   -6.53369280892536    9.80164763274004
C        -4.81777926682027   -5.75248490533805   10.59182850607902
C        -0.98815092956483   -1.57105555464159    7.63053368841561
C        -1.95114652231003   -2.44814767256376    7.10768349838316
C        -3.19727307482086   -2.60360749585196    7.70451441603582
C        -3.52974072503462   -1.92086963422592    8.86983581255701
C        -2.56557319814925   -1.10032088501701    9.43463743488903
C        -1.31928680171052   -0.92273730927278    8.82988024233923
C        -4.21834651884750   -3.50244233581276    7.06057546214230
C        -2.81311972789490   -0.39896416887021   10.74392568342868
C         1.30530151495295   -2.64962910986367    7.39606840207854
C         1.54436605149928   -3.77050198392025    6.59733762980159
C         2.20952194142150   -4.88353774588125    7.09003026011510
C         2.62448847327522   -4.95262669185282    8.41595811831347
C         2.37120294494229   -3.85927601851479    9.22708650789631
C         1.73836122448975   -2.71744878738094    8.72669015029109
C         2.41844355162995   -6.09474758439134    6.21883895985925
C         2.64876890788065   -3.89437764395903   10.70206106473457
C         0.33499750756334   -1.25189124672893    5.28304003931758
C        -0.84000010741837   -0.89219032751952    4.63192528033814
C        -0.88928980339704   -0.74285933098129    3.25151396510220
C         0.23745664454726   -0.93448714411631    2.47043817916253
C         1.42295550600351   -1.26401254236090    3.11386667430457
C         1.47216262651776   -1.41059630786359    4.49072757120920
C        -2.21224891332220   -0.40310431709805    2.62437292251266
C         2.67198909515747   -1.42880527699312    2.29199101066636
C         1.14949393822262    0.04570437495484    7.32272426956785
C         0.40783671783416    1.22640325905435    7.32221363169625
C         0.98892098065654    2.44858451507458    7.62365434317646
C         2.34190378121025    2.54525812061752    7.91681540192028
C         3.09214891496527    1.38130549078424    7.89383850790239
C         2.50912188272809    0.15616437571163    7.59614439613157
C         0.14050051286217    3.69009937323311    7.59509304377307
C         4.56712124437024    1.40790036591344    8.18336988973281
B         0.45523087356675   -1.35322338969901    6.89298498772702
H        -3.39101089866725   -7.45805936167151    7.46224479943668
H        -5.75823544580602   -7.76240791782573    8.04790004561771
H        -6.67779438161382   -6.65126278319966   10.06943809934035
H        -5.21121782209828   -5.26791109749430   11.47155621253126
H        -1.73893824608910   -2.97785336514815    6.18936924668064
H        -4.50466409492370   -2.02833433946761    9.32049152096765
H        -0.63799588636882   -0.19552710127964    9.25355231534500
H         1.21701625303747   -3.76779157682766    5.56886735298349
H         3.12292628217225   -5.83009663337097    8.79793254872463
H         1.67324530558150   -1.83684485801090    9.36283497414114
H        -1.74261099001038   -0.71304789693517    5.19757908888232
H         0.19924255141548   -0.82568461794984    1.39795062421664
H         2.41575495638506   -1.64901531853173    4.95764971087211
H        -0.64420237287403    1.19522024164800    7.08010019615600
H         2.79301616884973    3.49568986492257    8.15459554865414
H         3.13830615849551   -0.72164081451684    7.57832594557452

