51
CSD_code = NUPWUQ | q = 0 | S = 0 | Stoichiometry = C22H22Cl2N4Pt | MND = 6
Pt        0.00000210108340    1.26532546536690    4.17175171053874
Cl       -0.00001157433707   -1.09479061839508    4.17175993570370
Cl       -0.00002114357559    3.64371500298348    4.17176616993638
N        -1.96972032704661    1.29387588277262    3.91935103256083
N         0.48914922322579    1.29516765177535    2.24715283622612
C        -2.47504069898873    1.79775034779773    2.80847297525241
C        -1.70662893047837    2.04315519373025    1.66294582711521
C        -0.35819146883308    1.80082894854057    1.36987635334978
C         1.81322882120161    0.90113259253670    2.07652482845045
C         2.35117584483368    0.40652140075194    0.89406974108852
C         3.66140239606950   -0.04469192076926    0.84624491715889
C         4.43689341240014   -0.04748654654813    1.98783861139195
C         3.91076699555387    0.40170759501327    3.18944661325374
C        -2.61448111671720    0.89936618422901    5.08824449507479
C        -3.92182295258632    2.20715801663925    2.71940093389609
C         0.09100709817493    2.21564372509653   -0.00671342134566
H        -2.25933888222483    2.49153206818864    0.85037958276799
H         1.73602261013740    0.31070651306461    0.01616833481437
H         4.05656573894487   -0.42736363494249   -0.08231326337451
H         5.44476359954540   -0.43263964264679    1.96159040994839
H         4.49967642677191    0.30232432621090    4.08476517605772
H        -4.30643004259974    2.48067761219788    3.69871208755587
H        -4.01499516616892    3.06283338968591    2.05550259008420
H        -4.52846042956714    1.40029785058646    2.30967575751836
H        -0.07102579726423    1.41310707099021   -0.72550235966378
H         1.14406653856674    2.48535111308356   -0.00434676672198
H        -0.48954668512004    3.07536346316624   -0.33184385300371
N         1.96972350366917    1.29387310842461    4.42415591145600
C         2.47504360425503    1.79775007291674    5.53503560400516
C         1.70663058680187    2.04315547974146    6.68055892125342
C         0.35819010165666    1.80082958710190    6.97362590318231
N        -0.48914907693930    1.29517086297013    6.09634988493213
C        -1.81322769932877    0.90113473714646    6.26697984332954
C        -2.35117422810370    0.40652251587023    7.44943482400399
C        -3.66140133157544   -0.04469026672306    7.49726031518315
C        -4.43689240060877   -0.04748494151826    6.35566655671096
C        -3.91076513700144    0.40170863613578    5.15405829773966
H        -4.49967503949750    0.30232456237760    4.25873982189932
H        -5.44476291901197   -0.43263784076806    6.38191497918563
H        -4.05656512982123   -0.42736158366647    8.42581871428670
H        -1.73602133658915    0.31070684493715    8.32733661974370
C        -0.09100600350079    2.21564182876417    8.35021700590348
H         0.07102791109109    1.41310550157134    9.06900530333497
H        -1.14406470260310    2.48534999822707    8.34785506610543
H         0.48954785569676    3.07536022180242    8.67534868816518
H         2.25933820872075    2.49153243576309    7.49312664573485
C         3.92182556752346    2.20716003605359    5.62410503460721
H         4.30642879053748    2.48067871065292    4.64479149940025
H         4.01499674551198    3.06283678439771    6.28800276348242
H         4.52846374201220    1.40029945401505    6.03382966315648
C         2.61448279610343    0.89936420270405    3.25526087756288

