59
CSD_code = NUPXAX | q = 0 | S = 0 | Stoichiometry = C30H23N2NiO2P | MND = 7
Ni        9.22274357032145    3.46444001278326    4.58711417100069
P         9.78682224879358    4.78612971850311    2.99352195328361
O        16.99072322109645    4.93114729026960    9.33056837902102
O        17.32167035329051    6.40545915984179    7.79727230305392
N        16.67066391710276    5.51600575080413    8.31368383176440
N        13.51932469722906    3.74631090350718    7.67585211441408
C        10.81448109153206    3.69048042913074    5.46345082251415
C        11.88144953768017    3.96764628632607    5.98365866896817
C        13.10559684642601    4.35473409164927    6.55875050224767
C        13.84656520875322    5.38312331553929    5.94038390844487
C        15.03042775942938    5.77879161723473    6.51205016418202
C        15.44774187143083    5.13663325692191    7.68167176824966
C        14.65075711036368    4.12320526247574    8.21807129926372
C         7.09650964357382    3.47519518779401    4.62246607953187
C         7.59061491862892    2.40015589304813    3.79358712006269
C         8.34826605338521    1.54047692179889    4.58731464592828
C         8.43835280603114    2.13722100851624    5.87980265372194
C         7.57728419840066    3.28683804364519    5.91098611259908
C         8.44111897726763    5.48492801057005    1.98493350851093
C         7.92733477017730    6.75105450785128    2.24155743735736
C         6.85094773425577    7.22053841159636    1.50930076506611
C         6.27663280062623    6.42941705150623    0.52811537678000
C         6.77924263041573    5.16189445121343    0.27721626703954
C         7.85313278788871    4.68759473224750    1.00581219722806
C        10.88115686170400    4.02660835616718    1.75712063840467
C        11.59333187759918    2.89521084813437    2.14106094622155
C        12.45937020972916    2.28515364656034    1.25204954240568
C        12.61313725949261    2.79971100724277   -0.02534641642055
C        11.89766796771263    3.92131232918646   -0.41469327872229
C        11.03093908007811    4.53677689601695    0.47048362198110
C        10.69388933047890    6.26775652180529    3.54462090793687
C        10.37169792231525    6.76317693921087    4.80561454398678
C        11.01102172430650    7.88416283818959    5.29877056662549
C        11.98427285477393    8.51324777162718    4.53756214609747
C        12.31197000689019    8.01966404367123    3.28552067401701
C        11.66898923901812    6.89986532168998    2.78447608899203
H        13.46957119780811    5.84000635939596    5.03870755862201
H        15.64126966304420    6.56304325664224    6.08967967697161
H        14.95554046391825    3.61040959455613    9.12100191822390
H         6.36537053751638    4.20450272393673    4.30478322665196
H         7.25507650346972    2.20865409213792    2.78454862611458
H         8.74905997048990    0.58041827640783    4.30484178272296
H         8.86862269616724    1.66796416572780    6.75255444217694
H         7.31017283582231    3.84346383426015    6.79475619169474
H         8.37312918994943    7.36504516441483    3.01164012924132
H         6.45695555497079    8.20635782825898    1.70809210132036
H         5.43489151242185    6.79780027437028   -0.03904446558951
H         6.32933169982035    4.54268325126510   -0.48507989377998
H         8.25022299290890    3.69877581501222    0.81623571450695
H        11.44908224007051    2.50553193975656    3.14584927529733
H        13.01089845035875    1.40694778667463    1.55233449769910
H        13.28634666101367    2.32335483170558   -0.72239619731870
H        12.01408000703880    4.31665804780208   -1.41321819969754
H        10.46211870053323    5.40328584316084    0.16102444890747
H         9.62918689644966    6.23714519024120    5.39825318995527
H        10.76081195321356    8.26263906859783    6.27836477866954
H        12.49396230938303    9.38296139586474    4.92430648658478
H        13.07655914242887    8.50528748323012    2.69708820119004
H        11.93828973299824    6.51229594231686    1.81299447807724

