49
CSD_code = NUPXEB | q = 0 | S = 0 | Stoichiometry = C25H18AuN2O2P | MND = 2
Au       -3.91580792249281   -6.35163353296411    3.01592607011396
P        -4.25934346377888   -8.21446200961355    4.24924597747320
O        -3.73317286233142    0.99427055082161   -2.69608711274438
O        -1.90623885890855    1.51327168383412   -1.68364918906317
N        -2.87080009413461    0.79183964862082   -1.86170232780320
N        -4.25055779057053   -2.29605713038221   -0.44118038575010
C        -3.65214090258028   -4.74559238038441    1.93892750304242
C        -3.51531557857962   -3.75080311994244    1.25776745833773
C        -3.32594885695769   -2.59109252140281    0.48268794773060
C        -2.19075914635158   -1.78234637113102    0.69287760183777
C        -2.02531845221928   -0.65702929548904   -0.07604830068325
C        -2.99756971168422   -0.36462426910965   -1.03715852260528
C        -4.09125796398448   -1.22228333263665   -1.17348741461168
C        -2.75030999396970   -8.98803752001807    4.89318658823641
C        -1.81783629068208   -9.40351966407446    3.94340888797561
C        -0.61758142106901   -9.95398628694518    4.34680818982940
C        -0.33399060951754  -10.07621274879109    5.69904112030387
C        -1.24927140972472   -9.64337813742042    6.64381092212163
C        -2.45683875954584   -9.09465241352426    6.24714267654663
C        -5.30537109454404   -8.01069362538155    5.72015238843714
C        -5.47337025240336   -6.72700486098041    6.22899788097135
C        -6.24700117445821   -6.52702561451904    7.35834233575969
C        -6.85788823551639   -7.60552812798966    7.97696069440893
C        -6.69750479897649   -8.88521064869773    7.46679074059889
C        -5.92435775926766   -9.09281021665505    6.34009547197835
C        -5.08146052897916   -9.57205928180614    3.36546887701972
C        -6.09103797053525   -9.20992420923219    2.47799642468114
C        -6.78031445133470  -10.18225721052221    1.77824086159277
C        -6.45968334063789  -11.51866454458433    1.95641082679485
C        -5.45090045876538  -11.88129265826326    2.83437449021219
C        -4.75947483165914  -10.91377317076187    3.54112656188667
H        -1.47319232387994   -2.05948073576114    1.44974399627017
H        -1.17593301895042    0.00056176662360    0.03782816950411
H        -4.85738136596207   -1.01422213990708   -1.90906118450420
H        -2.04929730508440   -9.29357499039140    2.89074135030155
H         0.09992084348565  -10.28332011059195    3.61005847279270
H         0.60531381287715  -10.50431900372418    6.01541372622128
H        -1.02249179240444   -9.73109379578815    7.69615077928018
H        -3.16895749400459   -8.75314042894182    6.98570613105346
H        -4.99697056003864   -5.89097197520227    5.73172748411227
H        -6.37616333555509   -5.53006747513519    7.75269329667071
H        -7.46407267525246   -7.44965246068440    8.85675486093299
H        -7.17774788468243   -9.72379904456917    7.94944745027763
H        -5.79929131004675  -10.08904783648658    5.93797569762266
H        -6.32406348485329   -8.16136235607473    2.33862793435968
H        -7.56228564521366   -9.89852845063961    1.08997034358172
H        -6.99348182993313  -12.27923613814386    1.40659536929138
H        -5.19995658201964  -12.92321249832141    2.96935141584412
H        -3.96802306231849  -11.19835930632109    4.22139946177210

