47
CSD_code = NUPXIF | q = 0 | S = 0 | Stoichiometry = C25H19AuNP | MND = 2
Au        4.60705724548559   -5.66060871960760    8.76632170515315
P         3.01714910311699   -4.78483988498715   10.11083646610338
N         9.05234925144319   -7.66738172251707    6.54959952480555
C         5.98976191800162   -6.39593485964869    7.60458682526348
C         6.86675380022713   -6.84685094489119    6.90231385965180
C         7.85943494179226   -7.36374960616847    6.03409180446460
C         7.56803177404485   -7.54432289881788    4.67377269909634
C         8.54726849506349   -8.05330775472572    3.84640834775703
C         9.78670964401637   -8.36829812924524    4.38824081970216
C         9.97648606516903   -8.15196608736816    5.74444444520041
C         1.30749646662552   -5.19459438883674    9.65970272919995
C         0.36006354773150   -5.68209748190736   10.55142419835673
C        -0.91005038946562   -5.99294978411936   10.09721560298800
C        -1.23661125977571   -5.82464645639726    8.76186820997687
C        -0.28844107050947   -5.35159485334590    7.86739235051386
C         0.98259061405147   -5.04522042872921    8.31228007121775
C         3.01852175746744   -2.96900329955775   10.15950288345783
C         1.91949620223001   -2.17274331795124    9.86256534667481
C         2.04477219373829   -0.79457301877550    9.89742262437126
C         3.25681074416526   -0.21010034784764   10.22452229917834
C         4.35624618966135   -1.00335122289389   10.51568424035684
C         4.24036994527454   -2.37870565420636   10.47677131660030
C         3.11826038090307   -5.20944118222878   11.87347947707362
C         2.59113340569340   -4.39016497806659   12.86803330771681
C         2.69331815489470   -4.77021976564910   14.19313201412763
C         3.31861957341660   -5.96065646162424   14.53117015429817
C         3.84689935776767   -6.77542832865707   13.54319812935630
C         3.75043995653998   -6.40035996398470   12.21531889756917
H         6.58879083655778   -7.28481797298072    4.29845937521310
H         8.35320378938822   -8.20497540722437    2.79268001954649
H        10.57999536730530   -8.76922471962170    3.77554895702099
H        10.92565211619435   -8.38076413516434    6.21579229044429
H         0.61389985420720   -5.81808822114377   11.59348698668672
H        -1.64761915343618   -6.36989449393796   10.79052446636234
H        -2.22964413814453   -6.06868249853953    8.41507878774127
H        -0.53983219502891   -5.22880254301708    6.82433334625907
H         1.73817247889560   -4.68690262976817    7.62322361747842
H         0.97196170987098   -2.62661229222651    9.60679133931607
H         1.19032224595776   -0.17514779115033    9.66696425791280
H         3.34697734504292    0.86563452671251   10.24824928651723
H         5.30313370287550   -0.54823161980775   10.76515136447759
H         5.09365379150922   -3.01152862194800   10.68923489794620
H         2.10586789307759   -3.46119835293321   12.59999696527358
H         2.28465701501590   -4.13545679456666   14.96576829112320
H         3.39731983193162   -6.25084123832275   15.56832954507681
H         4.33847995074571   -7.69979416240520   13.80742974485894
H         4.16876954926290   -7.02235948919958   11.43365611051242

