25
CSD_code = NUQBUW | q = 0 | S = 0 | Stoichiometry = C10H8F3MnN2O | MND = 6
Mn        3.21754295438608    1.53500868936609    2.96637070493281
F         3.04395187234863    3.23903398855708    3.40366600701904
F         2.62303891911284    1.97732558389657    1.40012933289096
F         2.57623410951340   -0.07805562345950    2.64563599120677
O         4.66660771600446    1.35054856443276    2.87521617169988
N         1.01918913851018    1.71940592054618    3.60805226083246
N         3.17292660254691    1.09954622791130    4.92590337524375
C         0.01489992960761    2.06112541534997    2.82336025025639
H         0.25505843224224    2.18352566856355    1.77642337803535
C        -1.26961989638540    2.25367214374187    3.31241786442426
H        -2.06921415463373    2.53327018537670    2.64590195869793
C        -1.49168602743607    2.08204342395916    4.66998632770914
H        -2.47587402986262    2.22824434613074    5.08967291797183
C        -0.43491405052333    1.72106655355519    5.48780226157228
H        -0.59325577072392    1.58848222593756    6.54531123346141
C         0.82700769074630    1.54291836045347    4.91801429132932
C         2.03467559889305    1.16026571766442    5.65330378862842
C         2.02407464834248    0.86563774217648    7.01710669217438
H         1.10146204326496    0.91721327438652    7.57118809421936
C         3.19357213605436    0.50363358507466    7.65498174755814
H         3.19927163182738    0.27339280687464    8.70885862964777
C         4.35767194234845    0.44265732319125    6.89934265209259
H         5.29870451983927    0.16401528448979    7.34480591713770
C         4.29956215014961    0.74468842078155    5.55382249227360
H         5.18861189382710    0.70453417104205    4.93832565898459

