79
CSD_code = NUQQIB | q = 0 | S = 0 | Stoichiometry = C36H30F6N6Pt | MND = 4
Pt        7.23135910321727    9.45133013364160    1.21671209320562
N         5.73536080024884    7.62029379959595    3.09315836191910
N         6.43003142778621    7.82996770179767    1.99096101007587
N         7.76181429538614    8.11572772344135   -0.12669939766349
N         8.44804039759256    8.20802937166266   -1.25008173936575
N         6.67714075078441   10.78382009223968    2.58804363536821
N         8.05623917205552   11.07689709766692    0.41500333973115
C         4.66229882964355    5.74458442361112    4.24446183763845
C         5.45262915786178    6.31658294493101    3.12805959041304
C         5.97743196276337    5.65589968004188    2.00927102306328
H         5.90806351710301    4.61524266726448    1.77381337446789
C         6.60169142450203    6.67091439772273    1.30217766662886
C         7.35791471985445    6.83562071764224    0.08704200827983
C         7.81458849070395    6.06071281002435   -0.96687285947892
H         7.68509972328239    5.01325651559269   -1.13806615911934
C         8.49136804067059    6.98271703206612   -1.77665786086871
C         9.20918153413156    6.73031941739844   -3.04908569626907
C         5.95906118294625   10.52607768980316    3.67964762144131
H         5.66707159534106    9.48896900300969    3.82483247823846
C         5.60133397024545   11.51365370950844    4.57797992582398
H         5.01249690520654   11.26383453055641    5.44596136051601
C         5.99762649779740   12.82934222539321    4.34895437333433
C         6.75089858015385   13.08745866418042    3.20816579876445
H         7.07855847183841   14.09538970194217    3.00894730795555
C         7.07782630314992   12.05142349000529    2.34352035643354
C         7.86287662077901   12.21643252294359    1.11582635673259
C         8.38109343638083   13.42710864859531    0.67543843281142
H         8.22026940455446   14.33302719800513    1.23809483242534
C         9.11478252294831   13.48044237671198   -0.50509282622403
C         9.29945639651313   12.29138334314821   -1.20655504709528
H         9.86264210799891   12.28161066100414   -2.12602957242024
C         8.75696773186050   11.11813158014121   -0.71673593661595
H         8.87647883748454   10.17206163854564   -1.23885547678928
C         5.63152642911976   13.91737674217352    5.27857743675382
C         4.56826325046362   14.76428767615248    4.96489836637050
C         4.23157936339692   15.77500935605302    5.85257836169082
H         3.40503688107195   16.42915010326032    5.61495146045091
C         4.92899957505975   15.95975163093010    7.03686228791340
C         5.98506000133699   15.10590363087925    7.32737767042339
H         6.53536909091327   15.24044383725040    8.24748373685894
C         6.34664194046922   14.08298728952743    6.46629352255614
C         3.79334835713098   14.56967257339994    3.69537745234345
H         2.94181122071886   15.24374013392438    3.66053232319990
H         3.42993241647593   13.54556968923418    3.61946635252087
H         4.42036917427594   14.76384735507084    2.82538265332800
C         4.56811646983028   17.06238835129983    7.98365356036810
H         5.31596499517938   17.85417488157909    7.93794260603575
H         4.53689637846675   16.69379002081881    9.00699183159293
H         3.60085746547368   17.49045326024390    7.73405719628455
C         7.48851125828361   13.16870204673928    6.79656017402670
H         8.01450327256865   13.51826557895780    7.68081487898271
H         8.19465416895797   13.11455196618082    5.96874740842714
H         7.12751277978120   12.15901304012085    6.98945350899907
C         9.67341808415848   14.75831264708343   -0.99355032268648
C         8.95423812882329   15.51594079300973   -1.91857287682499
C         9.49246622729568   16.71164652546310   -2.36724756922413
H         8.93890753186520   17.30280107358379   -3.08252521277493
C        10.72575495429026   17.16392566109315   -1.91940453014642
C        11.42405535763040   16.39248163699259   -1.00108274653194
H        12.38642590978875   16.73239903246206   -0.64630449263243
C        10.91519955056819   15.19284416086698   -0.52906682443577
C         7.62126164863579   15.03756728486890   -2.41144185272423
H         7.72606204144046   14.09251050837607   -2.94336309349958
H         7.17846871478073   15.76524234293822   -3.08600006580208
H         6.93726046790448   14.87351246601405   -1.57904928013451
C        11.30316981003542   18.44511537848862   -2.43666466067218
H        11.90054899521149   18.24817461323618   -3.32733086828116
H        11.94928175631160   18.90819507615390   -1.69475907626579
H        10.51630303793788   19.14468181201206   -2.70823307847591
C        11.68326175611393   14.36491878697469    0.45764015835418
H        11.11804299142300   14.24019829261501    1.38105368794231
H        12.63316591736254   14.83579688580080    0.69552297714011
H        11.87948696391539   13.37209121659639    0.05402572668184
F         5.05812831593854    6.18865310812494    5.45300545267561
F         3.34550700952882    6.04181315807891    4.16647855176054
F         4.73461002617558    4.40455561137275    4.29038351610898
F         9.02838178915694    7.70562691558186   -3.95913823573826
F        10.54854477309831    6.63059919195836   -2.88920066089725
F         8.82479983884932    5.58535314665168   -3.63701762539748

