59
CSD_code = NUQTUQ | q = 0 | S = 0 | Stoichiometry = C31H23ClNPPtS | MND = 4
C         4.53099523341265    8.24430225514130    8.78624602735326
C         4.65998317212724    9.04466086487306    7.66207274791724
C         5.49911655314736    8.47620343524470    6.63743813628600
C         5.95476708129485    7.19734865909988    7.01797894851800
C         5.94658186989311    8.97337001683703    5.41143142501973
H         5.67516659956446    9.96256414838058    5.08133276355611
C         6.77030204941381    8.21032787956067    4.61101052470853
H         7.10723044790663    8.61022536337362    3.66576632486675
C         7.18016580420394    6.93872215990307    4.99955811187264
H         7.82222187014484    6.35859457058500    4.35433134924242
C         6.77815500696666    6.42640461137084    6.21583094426274
H         7.09688464205742    5.45082116200383    6.54883751610625
C         3.91611611491396   10.28212877784788    7.71408721986517
C         3.73920664809193   11.18971215535232    6.66587171222925
H         4.16908643779770   10.98705138335947    5.70131850182931
C         2.99048536418749   12.33238719270243    6.85791460625557
H         2.85208587968603   13.03344601182299    6.04810761225660
C         2.41497852855250   12.56351293230179    8.09979376435632
H         1.82863579734173   13.44655174025065    8.29370485351186
C         2.59720037410534   11.61843450033769    9.09202405337574
H         2.15264413397054   11.74394477447277   10.07198638333613
C         2.90579614612802    5.80002600943748   11.30660068135963
C         2.29829598371635    5.73407997914975   10.05786219479840
H         2.34696335051997    6.60222461235277    9.40636800626238
C         1.63379403076418    4.58552933793848    9.66820202221341
H         1.16262367941815    4.53593007672737    8.69780657235780
C         1.56972221968531    3.50075510520547   10.52750535657225
H         1.05266872487447    2.60209419013114   10.22498999737479
C         2.15532722228461    3.57023188049688   11.78218439488632
H         2.08983774115164    2.72806991572072   12.45572312149586
C         2.81838199018502    4.71761299027614   12.17738287127794
H         3.25367819526238    4.78427923084005   13.16560481993590
C         5.54133620811556    6.92782559052627   11.83293846904123
C         6.06753040973476    5.65481164592738   11.99832276570527
H         5.41060914387009    4.80226272692168   12.08567321890333
C         7.44083887978663    5.47996575761262   12.02481865683754
H         7.85164847776299    4.48824069107655   12.14544937346916
C         8.28801135329108    6.56705181403624   11.89069896536203
H         9.35803513629006    6.42177518655764   11.90859502394680
C         7.76577388078079    7.84038366285259   11.72114255956317
H         8.42691094868016    8.68663604248745   11.60640569166314
C         6.39673787609849    8.01856124072391   11.68747590220957
H         5.96166505686204    9.00645031592367   11.53412371559017
C         3.31045553179384    7.53736860952540   13.49822503504227
C         4.24567993824601    7.84532160163272   14.47831339392354
H         5.29299327184698    7.92265778510594   14.22083506880198
C         3.83128592900288    8.05644570868563   15.78200037927783
H         4.55961606949735    8.29648445833679   16.54299578713302
C         2.48886556910778    7.97079763762360   16.10916615359515
H         2.16916202494385    8.14408051627679   17.12621185999349
C         1.55287840071237    7.67372293974638   15.13040302799375
H         0.50417965523938    7.61919521818019   15.38298582042405
C         1.95968003896083    7.45991770047963   13.82828286562813
H         1.23576009856525    7.24521293182460   13.05324335930408
N         3.31490130224854   10.51695776265865    8.90996999020759
P         3.76972311297491    7.33182249404752   11.75301490876732
S         5.38024992815108    6.74672828715068    8.60648048849375
Pt        3.49339478953788    9.03683862461165   10.29643460626871
Cl        2.31417807512358   10.15383512634653   11.95241934762544

