59
CSD_code = NUQTAW | q = 0 | S = 0 | Stoichiometry = C31H23ClNPPtS | MND = 4
C         2.36626196143549    6.94913863013467    9.04697452800107
C         1.40149897465490    7.91413739751268    8.80243764387957
C         0.19405472752764    7.73333881790019    9.57015303421522
C         0.28809752767172    6.58652042356464   10.38548047584978
C        -0.73110704615041    6.17870567129827   11.22860013902158
H        -0.61067496231078    5.29157676629273   11.83101303337475
C        -1.88624185426785    6.93106684182818   11.27825637214822
H        -2.69636437356257    6.63678868471407   11.92807415469521
C        -2.00370661022805    8.07431509077622   10.49415124717450
H        -2.90861029772408    8.66206864057375   10.54552934861902
C        -0.98671392522146    8.47487038820379    9.65349765156720
H        -1.12272917559336    9.37302349582127    9.07420402871889
C         1.78395745009681    8.91272530882274    7.82987681746309
C         0.99127795453922    9.96114270923905    7.35408501672062
H        -0.01700958062755   10.07742760545594    7.70780563113878
C         1.49458976018405   10.84511049582775    6.42218637930323
H         0.88118887756480   11.65514821238287    6.05621155840124
C         2.79358846649281   10.67764982650350    5.96278719913278
H         3.22643609402073   11.34715984436003    5.23779938886407
C         3.52935784535751    9.61635255165857    6.45548234509988
H         4.54426577177685    9.43739522925537    6.12106911018676
C         6.67785884143286    4.74797551175826    8.16720899543597
C         7.84098677533725    5.43598567218003    8.50410961389337
H         7.78495709638980    6.26405119643078    9.19833419393886
C         9.04769042050805    5.07135735649299    7.94046266371465
H         9.94754712165019    5.61029455473320    8.19811060905386
C         9.10116452560304    4.02201051494588    7.03570626555348
H        10.04462265000434    3.74063226575648    6.59143964781279
C         7.94524045124912    3.34132326118616    6.69354939672715
H         7.98576990936511    2.52861410029588    5.98276485541923
C         6.73176102293745    3.70376785449815    7.25235890070023
H         5.82739017367787    3.17877227108744    6.97694191970804
C         5.51868887126754    5.41274828782564   10.65233943986241
C         6.29546294572188    4.44346294863055   11.28051734228598
H         6.70004877008686    3.62112801832810   10.70555639317359
C         6.56459603912188    4.54952601996600   12.63277163857170
H         7.16357107082534    3.79556559725074   13.12256520149587
C         6.07319932996520    5.62331971644522   13.35907388598597
H         6.28670596357033    5.70045987734321   14.41499643047546
C         5.32308469919946    6.60402359565285   12.73078495206241
H         4.95643658951371    7.44908063447652   13.29424487481127
C         5.04861450439401    6.50060833226024   11.37927541293187
H         4.47654994935496    7.26672983392815   10.86315607503041
C         3.99960119495488    3.91025155869366    8.66416533362411
C         3.87099813337061    2.84246703817052    9.54062123719827
H         4.45405487711572    2.81131773252825   10.44875116125707
C         2.97143711385576    1.82870536144056    9.25679766361181
H         2.86512846099738    1.00052223933301    9.94200926232723
C         2.20470505464665    1.87461076524173    8.10446287049235
H         1.50337333289879    1.08136575077859    7.89178209502131
C         2.32676575728411    2.94278018278641    7.22868563525867
H         1.72151534015182    2.98344097585862    6.33523728274195
C         3.21794709231478    3.95915980199605    7.51113193929618
H         3.31809936480381    4.81939851568797    6.84862064235634
N         3.04793037480837    8.76400078584461    7.35180351512555
P         5.11434685881143    5.33033395180806    8.88531329631317
S         1.82748834758326    5.77881682302332   10.20184095074710
Cl        6.00076385251634    7.58158678926258    6.81427606939129
Pt        4.08637953707931    7.16524167394355    8.05985723301721

