78
CSD_code = NURJUF | q = 0 | S = 0 | Stoichiometry = C39H34ClNO2Pd | MND = 5
Pd        4.55595958000219    5.81653632824643    3.22136802055758
Cl        6.51024452442231    6.57274990927786    2.41984309981075
O         2.06745320093712   10.34548803685255    3.90279207314082
O         0.39586975591740    9.00694647856381    3.25053424782919
N         3.79127297952972    7.96114503389680    3.51982451462438
C         2.36057372944912    7.90552818637819    3.87090956512667
H         1.87529661726173    7.24138329162375    3.14227154193546
C         2.10808741206835    7.33852384678038    5.25673515400182
C         1.46771713999489    8.12934250175846    6.20533164342845
H         1.19956238292713    9.14510689351524    5.95956792331128
C         1.17285783864660    7.66022373949059    7.47139310185389
H         0.67351293257906    8.30112374587811    8.18158581130666
C         1.52853418265175    6.36909319461045    7.81533925595789
H         1.30267351284834    5.97931929030052    8.79622084615001
C         2.19116767913586    5.58092405849303    6.89756130163347
H         2.47905007444569    4.57766280450014    7.17497748368143
C         2.49329382728552    6.03433579000308    5.60919784706778
C         3.24502758151099    5.07477634064685    4.75952679766187
C         2.83259301405722    4.58189475999063    3.53049829997305
C         3.62159223683151    3.45872015240308    2.90684849718530
C         4.86688034109339    3.90321468773705    2.68951501040924
C         3.94956867435777    8.52880194510682    2.17414064002799
H         3.37016386873410    7.93948964105329    1.45469877431152
H         5.00448770477165    8.48133601981224    1.89831504097262
H         3.62186443681837    9.57390742496920    2.13575993379093
C         4.58271519493232    8.73304633314357    4.48103301331253
H         5.63679016039942    8.62926585438257    4.21619286543879
H         4.42229736331681    8.34293118620302    5.48794013560927
H         4.31031798203236    9.79256161460921    4.46479331119054
C         1.63205395300192    9.24208909601521    3.70271733835988
C        -0.43390645842969   10.14320316535246    3.04608113886835
H        -1.34629935917013    9.77235198037848    2.58742006019047
H         0.06292999610867   10.86225382253776    2.39178339812383
H        -0.65527721071029   10.62841342968923    3.99894536782476
C         4.30275097018231    4.32255433406639    5.51565021886222
C         4.13447504495857    2.98464712758801    5.86007675982176
H         3.23185538593147    2.46529442514303    5.57054969419688
C         5.12461434357451    2.31215621842731    6.55569358972949
H         4.98345518087551    1.27191539149186    6.81090076744228
C         6.29112770527819    2.96476174064955    6.91519117688485
H         7.06615851203698    2.43441117335239    7.44790826869474
C         6.46436673265923    4.29957329558955    6.58496363197906
H         7.37479638289137    4.81077880407746    6.85956171962685
C         5.47593626987167    4.98070642400522    5.89733752431203
H         5.61544850588716    6.03771798564737    5.65338710016943
C         1.62672112585044    5.01691791151931    2.80695666479851
C         1.75418094376133    5.32682081477049    1.44956226856975
H         2.73489879118804    5.24606159271525    0.97853193771680
C         0.65690286172262    5.75404103978751    0.72725921164073
H         0.76317283883067    6.00106782127265   -0.31887829156575
C        -0.57942874101403    5.86641538671856    1.34508086348446
H        -1.43657081181497    6.19931686055391    0.77929371320388
C        -0.71476234458007    5.54999055169134    2.68628441110776
H        -1.67790919179838    5.63330923779178    3.16739109369934
C         0.37963993311928    5.12595293863479    3.41782365890418
H         0.27281417665998    4.88353676982198    4.46576287562828
C         3.00082057646002    2.17443282168375    2.60416378535684
C         1.77960138903968    1.82961945887070    3.18537491142063
H         1.29558205829847    2.51760751515328    3.86381285644075
C         1.18430093649780    0.61472111576869    2.90622291233621
H         0.23858499374862    0.36341818714919    3.36501951759639
C         1.79553558018368   -0.27922857218451    2.04320674518682
H         1.32896011742337   -1.22865246910230    1.82566889112363
C         3.00748738413670    0.05329102100740    1.45923735907666
H         3.48776750094308   -0.63853652228125    0.78263456024707
C         3.60561515383203    1.26748192773526    1.73275476127032
H         4.54444574885086    1.52495521673556    1.26716020518657
C         6.07736508181511    3.26253828580628    2.22695894767305
C         6.65555411865846    3.60272902589706    1.00102393348531
H         6.18407565249935    4.35827149659233    0.38697998226166
C         7.81847659934710    2.98565268882239    0.58605975326384
H         8.25792123248513    3.25451415382157   -0.36343607348481
C         8.42764058418110    2.03186474094403    1.38629780086872
H         9.34165327378696    1.55660143410464    1.06149882030881
C         7.86555575798560    1.69506824067539    2.60733448087645
H         8.34120244835031    0.95552377800222    3.23549395113077
C         6.69964601280529    2.30212066999221    3.03029956106461
H         6.25903633283443    2.04636735528427    3.98338042373446

