260
CSD_code = NURJEQ | q = 0 | S = 0 | Stoichiometry = C116H126N6O11Pd | MND = 4
Pd       17.62110804343647    7.07774564670618   14.83756308785200
O        20.61468477938196    9.02273141543908   16.81626556817370
O        24.53141352253351    5.52010055037463   12.22541310000787
O        26.42561069266205    3.00268665392434   11.86135682655915
O        23.58016003104215    1.32789929897813   10.41432457509941
O        20.51335571761753    0.89231523192997   10.94850229768169
O        17.97675068954317    1.28799626016217   12.06028315097142
O        14.40596970894935    5.75644370385577   17.00295016518618
O        13.63450782460433   10.51276518223876   11.08883779078762
O        12.91851687094174   11.86687848742970   12.73519876807575
O        22.24625568186867    3.36627959981479   12.31206990139059
O        22.99458243688175    2.58036425224430   14.27499813214571
N        17.55573988657877    7.29607996429174   16.70384020213912
N        19.38073487487720    8.12804817215258   15.09708527002718
N        15.77326942975491    6.23042540252839   15.22035922473307
N        17.73431690484037    6.82360803866559   12.79392799735194
N        14.71341944094105   10.44325390931465   13.03224047001142
N        20.95407965360320    3.64497025873146   14.09383052385547
C        16.49242066019299    6.86590529339316   17.37234612532421
C        16.44903869641292    6.96138304634731   18.75826089527481
C        17.55843938214329    7.46112025026578   19.42454904044274
C        18.65869505043149    7.89497795087760   18.70011187070324
C        18.61093068117106    7.82502798527376   17.31216792505446
C        19.65887047180844    8.38081713227656   16.37916341088066
C        20.25997957726668    8.72288215316526   14.10851622080532
C        21.34605718292559    7.79395847958396   13.62622879523945
C        21.59603297320546    7.62660110130288   12.26969936040225
C        22.66011099207802    6.86141100008061   11.83781448362152
C        23.49162057498636    6.21712084651495   12.75686914279604
C        23.21454095124393    6.33768546684459   14.11405289552809
C        22.16314432871568    7.13418823367764   14.53388809966716
C        25.46546602226989    4.90664347180264   13.09573263771098
C        26.61344240406573    4.33876556541226   12.24833544040657
C        25.36840591615471    2.79595750110359   10.94136135969881
C        24.72596499787669    1.44293306413661   11.22786394868726
C        22.83820794267411    0.15780999347466   10.64821158876063
C        21.44366909403371    0.34949499420098   10.03815252593296
C        19.89988351795776   -0.06582038342492   11.77986785768000
C        19.01020509517312    0.66150605596810   12.78089821327674
C        17.24766305969006    2.25994368575622   12.67918718402057
C        16.42728567943435    3.02151704855966   11.84757724842248
C        15.67021082412625    4.04935369310943   12.36684474730636
C        15.70860053750905    4.34223733808622   13.72441063691869
C        16.51006028292316    3.56573892602933   14.55217315868849
C        17.27251249618658    2.52817305381132   14.04280295840435
C        14.93040719863533    5.49238921443072   14.30549071241655
C        15.43216473380368    6.22651178268926   16.51133734313263
C        17.07900581540507    7.67695707984255   11.98564964074243
C        17.09370476901360    7.50185945425017   10.60031098672181
C        17.79764566326577    6.44033733325889   10.05997089197943
C        18.48946917254021    5.58720370852358   10.89697383907569
C        18.44736841820249    5.80775610232669   12.27557263781152
C        16.40216287423276    8.75837945514665   12.67419419610289
C        15.36817180629609    9.50836294319529   12.25805614470143
C        14.66927992669513    9.56430172828405   10.92443051575991
C        13.67201310084764   11.03719407858931   12.32920787193011
C        14.88700501522415   10.67525415497739   14.42151808445206
C        14.93482767687323    9.61575467638865   15.31903345230154
C        15.00370333807491    9.87385784725346   16.67635831788081
C        15.00964123921348   11.17525565513370   17.16276188702557
C        15.01033749204535   12.22248937664333   16.24486048248792
C        14.94120200126005   11.98229182713474   14.88728572135976
C        15.14307778359949   11.49306465099419   18.64269542601142
C        16.59043738719492   11.96281787585574   18.72578758411759
C        17.58552237639903   11.03296695272876   18.44418598339935
C        18.91561744937183   11.38896262556989   18.42055390724596
C        19.31341532148945   12.70139774869118   18.66618142641244
C        18.31629496247168   13.63191361652938   18.92267569458172
C        16.97568139584692   13.27467125978692   18.94202414476112
C        20.79403212901101   13.03836478086244   18.62702666747222
C        21.34938112560158   12.68090963498092   17.24102876969090
C        21.51639352223639   12.20658602546679   19.69628034306759
C        21.06878327090261   14.52003082141067   18.89589922376148
C        14.86071528412399   10.29429557685076   19.53725088446771
C        15.66972257896521    9.95192688956378   20.60820406581699
C        15.33386105172586    8.90177429089828   21.44860359436785
C        14.18705469477260    8.14655709754340   21.24750665224480
C        13.36754489344851    8.51231768839123   20.18099400828667
C        13.68476988910620    9.57175875311446   19.35752708112464
C        13.78446499134020    6.97915890136341   22.13575140559853
C        14.76166159092369    6.75281560036059   23.29221447075599
C        13.72967129940451    5.69143705810815   21.29975619021010
C        12.39856240143510    7.26742539277847   22.73134202111607
C        14.13542909226461   12.52104074586981   19.13306290377128
C        14.29175432539288   13.06975877121962   20.39995529809247
C        13.37153238745031   13.96412153347950   20.91407255797084
C        12.24378647343541   14.33338451942075   20.19104818533086
C        12.07398579347737   13.74930819548877   18.93989466120808
C        12.99306251895223   12.85710795968288   18.42066653175999
C        11.20741748185926   15.31724554028794   20.70960478414126
C        11.55651887618334   15.86600395830778   22.09570892566455
C         9.84834330531900   14.60956904121401   20.80271383519538
C        11.11146571959474   16.50110025434675   19.73688223358045
C        19.14906442842381    5.00477428408331   13.24884079806560
C        20.26326839303953    4.27686327777566   13.07701367653772
C        21.05692962359234    3.96850061999087   11.83844699191537
C        22.15590754163799    3.13120148559806   13.62068374501578
C        20.57622061604230    3.54893535764118   15.45533245142945
C        20.17076980633526    4.66129670389271   16.18334839311914
C        19.80972631143666    4.51351057239950   17.51000126315462
C        19.87555712089893    3.27910169207839   18.14640395572017
C        20.27633144258691    2.17542093439220   17.40041705198688
C        20.62527629809819    2.30427614548072   16.07106950481714
C        19.37864661450777    3.09509204690528   19.56961282990214
C        19.49561725196994    4.34958008421773   20.42188460636663
C        20.61524752045500    5.16817386705470   20.32288674508803
C        20.76239563035069    6.27425143896172   21.13514592934485
C        19.81856492579793    6.59838426870135   22.10648247130296
C        18.72803164064398    5.74752982667183   22.23322150165290
C        18.56753663342858    4.64645089134145   21.40879107313193
C        20.02724241199645    7.82581692394839   22.98006259725369
C        21.34501482392866    7.66472284870730   23.75156422910409
C        18.90155630282087    8.02493449323894   23.99868036509380
C        20.09796828553178    9.07890270747813   22.09448676910394
C        20.18136570136078    2.08458813198262   20.37165707660972
C        21.53716143101462    1.88841401986655   20.14247979091711
C        22.27033757230221    1.02605951598254   20.93345607464230
C        21.69171876507702    0.33491631779432   21.99419154243825
C        20.34310831137845    0.56164711248808   22.23752103352467
C        19.60509908593233    1.42528922101052   21.44819983926057
C        22.54160111732413   -0.60840973206399   22.83001603035470
C        23.68847525162353    0.18620292129521   23.47023462012879
C        23.11330905880536   -1.70492148087701   21.92013375292037
C        21.74568565452653   -1.28437244742845   23.94970688284484
C        17.94048040575980    2.67036913105376   19.30003433281621
C        17.57167345312796    1.34079962260221   19.16459687096372
C        16.28497563869247    0.99463345518546   18.78337929636187
C        15.32592172543985    1.95982622922213   18.50601111113578
C        15.70604473942208    3.29338346344383   18.63555927424047
C        16.98660599360305    3.63856684846841   19.01283574990282
C        13.90919274875921    1.63789359735499   18.06364153992814
C        12.92879647071434    2.20969153262887   19.09731173109840
C        13.65832999307389    0.13316557285107   17.93630223239954
C        13.65358777966425    2.29352087189088   16.69887330228732
H        15.56097807096789    6.64431660845261   19.28007671078273
H        17.56684827498084    7.50696095417187   20.50149736921940
H        19.53816731129635    8.29168772283390   19.17998555248925
H        20.73976810609760    9.60000703873472   14.56948383491683
H        19.65903707758670    9.06042667484648   13.25497085672824
H        20.96769276386687    8.12247047343199   11.54234481351216
H        22.88760172302884    6.76458818625501   10.78668234764877
H        23.82167152167780    5.83541734422679   14.85066756429360
H        21.99806966029794    7.27225517979627   15.59158607153596
H        24.99567870515688    4.09165132629042   13.66025960045319
H        25.86396271128765    5.65277383143332   13.79504514478164
H        26.75394337772532    4.98824778295068   11.37259107846584
H        27.53081345885476    4.33066794172264   12.84102733459449
H        25.75601496968168    2.82172259419599    9.91337058553660
H        24.59532132611611    3.56079936142458   11.04295510873545
H        25.43608166306583    0.62853794396036   11.02175455888128
H        24.44938959872053    1.40286755902695   12.29093085800563
H        23.34073582423590   -0.71107556631420   10.19363369597164
H        22.75112320634883   -0.02532880080747   11.72942307852865
H        21.06532317277066   -0.59840461466257    9.63480456761857
H        21.53394158559815    1.07724699137376    9.22872704411081
H        20.64718038740836   -0.65585995056285   12.32919962315439
H        19.28719242094154   -0.74867162899175   11.17334101531380
H        18.60355468135778   -0.06162485318179   13.50189760401808
H        19.60789485592039    1.40647730223235   13.31909470410063
H        16.40917944359651    2.78982620375860   10.79454944275807
H        15.04568764773531    4.63679927380112   11.70861618544243
H        16.53480365169808    3.76266553472598   15.61663649388616
H        17.87417164221013    1.94215505751303   14.72046856919127
H        14.57720524100520    6.14991879002010   13.49923911039397
H        14.05755124690446    5.11792318433759   14.85915478549049
H        16.58162153885665    8.19300953351085    9.95610432772290
H        17.81024829412519    6.28629823377773    8.99182794790888
H        19.02630964945535    4.74477604869954   10.50120442350954
H        16.76795961928985    8.92934587394772   13.69752330559972
H        15.33074188586861    9.91963953750019   10.12586015067754
H        14.23463149462514    8.60196641023185   10.63174548642893
H        14.87068105672262    8.58991759143158   14.97619943517127
H        15.02115672928190    9.03732182096631   17.35795015368100
H        15.05929616871448   13.24047407430217   16.60084359716452
H        14.91153148112565   12.80320978824713   14.18903362991256
H        17.30094654639514   10.01386491124904   18.23053149024741
H        19.64949871839925   10.63671049425614   18.18080110918868
H        18.56301519080677   14.66583547458279   19.10432869241129
H        16.23421977228148   14.03844789750461   19.12587687495120
H        21.24963332984333   11.61818644360528   17.03873287304529
H        22.40445588971417   12.94088175795306   17.18344185897350
H        20.81525312439913   13.23082419686069   16.46819570535346
H        21.43025133616400   11.14557810903733   19.48202021133201
H        21.08945234068837   12.39787146090255   20.67914232624013
H        22.57301627394473   12.46472688392786   19.72116498306150
H        20.59102530226132   15.14805040815158   18.14718797204458
H        22.14050855577383   14.70447855574669   18.85439481217232
H        20.71576376722839   14.81118883866669   19.88290185882400
H        16.57590002476749   10.50849890394870   20.80060357576349
H        15.99099553483558    8.68995056109988   22.27720608595923
H        12.45559803266932    7.96882479176491   19.98665457545152
H        13.00711438471910    9.84480194983280   18.56158965878712
H        15.75625310841416    6.52045518079354   22.91893648749613
H        14.42471950961485    5.90930095836176   23.89160421574709
H        14.81489489202325    7.62585999384332   23.93910604301391
H        14.73069079069858    5.38813805691176   20.99747555798357
H        13.12699547154914    5.82325276445076   20.40516416700765
H        13.29741835668532    4.88337076681532   21.88671413358639
H        12.40953823071603    8.21257913530178   23.27067896106868
H        12.11683301503964    6.47734090362921   23.42444704266251
H        11.63901542067221    7.32533569545487   21.95717237216734
H        15.14675903866276   12.79040331414085   20.99861705641874
H        13.54997543729401   14.36485769305363   21.89869365357464
H        11.20411561630840   13.98526101768366   18.34549132097645
H        12.80671092934705   12.42352902065408   17.44921985035549
H        12.50778954476282   16.39306190570558   22.07966414907553
H        11.60343005312234   15.06725244853184   22.83234212200966
H        10.78823335961741   16.56908888585100   22.41143668577711
H         9.51714802414804   14.25937373220445   19.82913652537952
H         9.09618112196899   15.29170301260628   21.19363369892142
H         9.91663126493957   13.75138882352264   21.46824821481605
H        12.07635963491677   16.99698480531575   19.65197873146177
H        10.38229093828309   17.22410168282811   20.09662938921071
H        10.80777441632265   16.17574103139654   18.74589228355444
H        18.72788472371984    5.07874707030901   14.25723298367445
H        20.54873198595155    3.23156703948028   11.20148602550548
H        21.31674972709432    4.86044747514404   11.26184103878699
H        20.17173911903007    5.64749251243472   15.73496839945861
H        19.49067020727500    5.38512557819796   18.06058588990873
H        20.31348556054422    1.20112364846817   17.86294687526356
H        20.94978186268700    1.44060781235766   15.51129113891028
H        21.38614165151137    4.94044296669758   19.60148085946482
H        21.64224562241322    6.88701118199052   21.00866642433509
H        17.98137362751505    5.92327259444475   22.99118901697612
H        17.70282913045423    4.01310470637938   21.54347856884953
H        22.19355717767700    7.60057852905576   23.07641534304327
H        21.31971904890834    6.75911297391671   24.35436968793561
H        21.49930094399800    8.51552726818223   24.41189014505993
H        17.94327052734085    8.16455962321094   23.50381719402842
H        19.10239224517351    8.91506899369237   24.59143463923267
H        18.83111757439888    7.17835707809492   24.67781136414304
H        20.89925217944618    9.00424430552168   21.36467021287403
H        20.28344611888314    9.95820115343590   22.70782424349916
H        19.16036874587195    9.22768872009178   21.56206977915335
H        22.03194915947440    2.41082012748593   19.33680789185518
H        23.31948646331049    0.89929506962702   20.71226251498870
H        19.84133459906403    0.07001884035595   23.05498705029253
H        18.56164513785347    1.58449858861918   21.67736460515155
H        24.32976103723045    0.63351629522768   22.71601518302518
H        24.29730709450661   -0.46798818511400   24.09080538822884
H        23.29015352521624    0.98335581200750   24.09467913039222
H        23.73794343146476   -1.28415503540011   21.13715928811678
H        22.30547566116551   -2.26195731360783   21.44965088975393
H        23.71706617218295   -2.39810022708579   22.50208429031442
H        20.92842521009419   -1.87775116525716   23.54603299190270
H        21.34425651220829   -0.54900686583956   24.64316559789242
H        22.40012054747449   -1.95043399976719   24.50850315194261
H        18.29049619645906    0.55669352492360   19.35464692408654
H        16.05031845855508   -0.05433195403578   18.69664413113917
H        15.00408886235469    4.08113560749844   18.41384854874805
H        17.25428368275569    4.68205787867817   19.08018513897800
H        13.01504172218474    3.29048467592677   19.15502097967451
H        13.13058664794262    1.79320077882124   20.08257584137102
H        11.90622468871027    1.96240950179424   18.82019103722858
H        14.32176364069777   -0.31228528233396   17.19808755983782
H        12.63348632618005   -0.03761430033687   17.61271660776177
H        13.79676420521796   -0.37019435129494   18.89082593323776
H        13.74783941676713    3.37382317034552   16.76044298680298
H        12.64835645583702    2.05822540504654   16.35509111111982
H        14.36544609843022    1.92753581316893   15.96040425752663

