260
CSD_code = NURJAM | q = 0 | S = 0 | Stoichiometry = C116H126N6O11Pd | MND = 4
Pd       15.42125563461193    7.36895834142391    8.45313270219587
O        12.51572341529017    9.19797361830867    6.24329948573395
O         8.83808678514557    5.87414554285460   11.49154668675556
O         7.55657812117271    3.30996545258142   12.52443950004118
O        10.01792476854061    1.73115201943425   13.74539946874006
O        11.87735101909146    0.82940951235630   11.50797246726162
O        14.72937667200003    1.62802776523270   11.21277139739503
O        18.69595938975306    5.87625585559135    6.50058483217877
O        19.08969113584124   11.16303017090638   12.14728954223259
O        19.84632812180217   12.42271979071739   10.44553455042013
O        10.84651380899639    3.65024199085254   10.97404305537121
O        10.12415481535818    2.84451922047873    9.01055606197288
N        15.56803603994753    7.48532908115840    6.58370980235316
N        13.68474189973294    8.41661185856149    8.06124305974777
N        17.26634629989453    6.46529708465197    8.19896329486452
N        15.21890733760288    7.22487599197206   10.49650527033612
N        18.10431668088404   10.93067759127893   10.16675076238171
N        12.17826081289897    3.88014557074089    9.21389283678045
C        16.65652947603934    7.01339896239839    5.98787592793025
C        16.76647071538740    7.04462651273092    4.60270818879307
C        15.69579288978084    7.52394121580147    3.86220358978964
C        14.56502530980748    7.99528040992003    4.51230564639816
C        14.54588032101182    7.98921769641591    5.90242844820810
C        13.45546000607730    8.59145611773414    6.75538336744793
C        12.77379456466024    9.07313140188903    8.97901970810302
C        11.78128086611698    8.14089358513971    9.62609713659016
C        11.63511737067748    8.10309048028496   11.00750585934397
C        10.65086700118773    7.33365078773018   11.59143031293475
C         9.78972714841101    6.56286762729838   10.80586093387415
C         9.96282702088321    6.55637788389547    9.42607537602258
C        10.94269961282555    7.34978888739067    8.85234780789528
C         7.93895176133009    5.03194916988100   10.79435783523480
C         6.99813641898003    4.38621011607222   11.81869924350248
C         8.53173714438105    3.68240575681855   13.47948565096668
C         8.94247106962410    2.44969445245605   14.29151938993642
C         9.70809170305809    1.05662835603384   12.54209692880866
C        10.86230316437005    0.12632749622324   12.19076328278841
C        12.98053357584439    0.00930015806876   11.21109998288151
C        13.97720287632379    0.79136277824440   10.36448866506145
C        15.55980032420696    2.54947180781147   10.64520916252516
C        15.73343604248075    2.73848221869036    9.27836132563842
C        16.55221859365443    3.75859384360646    8.82509830396979
C        17.22521504959714    4.59106221506454    9.71106913020002
C        17.08133218289507    4.36548459575350   11.07432055539235
C        16.26172238366986    3.35865570129697   11.53840167943140
C        18.04566525164831    5.73644103159837    9.17819277316523
C        17.66265105139772    6.39374436933680    6.92545606552588
C        15.78336522932156    8.15761783887942   11.28423484850071
C        15.69990628516480    8.06534475007600   12.67468316102744
C        15.02934201074318    6.99513809763404   13.24025219954559
C        14.43835252377122    6.05276167167404   12.42165626700055
C        14.53799628671864    6.19813515629281   11.03569343653839
C        16.44812132828692    9.22536733862627   10.56355657023022
C        17.44109077085216   10.03034033734845   10.97443396821911
C        18.07649452319462   10.19455514333696   12.33017709554322
C        19.09627984697281   11.60074571875164   10.87326019019945
C        17.99686187078925   11.05358693934578    8.75694301213835
C        18.01207159600938    9.93114478101255    7.93712489271409
C        18.02299298523576   10.09142792520806    6.56250070053675
C        18.03525757390319   11.35417806776924    5.98369453994623
C        17.95895355734789   12.46400669062553    6.82144475700852
C        17.94819609702705   12.32243386409624    8.19433782575801
C        18.02026334878060   11.56921814014074    4.47968853866328
C        16.59463093337740   12.04910333811849    4.23579464544539
C        15.55899158576376   11.16397643810665    4.50533823816279
C        14.23521470238700   11.52820223503362    4.35872938061753
C        13.89195682359058   12.80912140934301    3.94206971702509
C        14.93150476630043   13.70649648422742    3.71839171124940
C        16.25839769283763   13.34266152364898    3.86806783528557
C        12.44875363830171   13.25195434267111    3.76533322987641
C        11.46247544168356   12.08821954043879    3.89641335382341
C        12.12363227386877   14.29539686281313    4.84299627812476
C        12.26714508352859   13.87093686251614    2.37169702036405
C        18.35808879542136   10.31049643523074    3.69243838990908
C        17.62584191731335    9.89458549246677    2.59276865791520
C        18.01902159028809    8.79238446342117    1.84944987832694
C        19.14863192698066    8.05696479793607    2.17894522745744
C        19.89209376228189    8.49588736600323    3.27331976480633
C        19.51810248739293    9.60567030875595    4.00113877224596
C        19.61250588775712    6.83793942836820    1.39642209689091
C        19.63142556865689    5.60892743163627    2.31766390676242
C        21.02790706985035    7.10591441374700    0.86401125073144
C        18.70594494950187    6.52120439391245    0.20401027042297
C        19.08173229553015   12.55108032116815    4.00525760342794
C        19.04979004747291   12.98987744081186    2.68488161627185
C        20.02173747714230   13.83523080424382    2.19268011402529
C        21.08150715421367   14.26799495891249    2.98691410212723
C        21.12821054792208   13.79532990311992    4.29049261063457
C        20.15241101944239   12.94771888889336    4.78994270121372
C        22.12538249808772   15.20596699872081    2.40275993900363
C        23.20820578093531   15.58747575765579    3.41559998064049
C        22.80481346375078   14.51736021193317    1.21071342835315
C        21.43374306753407   16.49411533182671    1.93434987161840
C        13.92364772205833    5.31743121874411   10.07043602066376
C        12.83641442673582    4.54789616525901   10.22840451524374
C        12.03288652521546    4.24288622316396   11.46004542547670
C        10.96538793407669    3.38137675798206    9.67083296634084
C        12.56396180420502    3.76299062779131    7.85664481196332
C        12.47726779038577    2.51360009828374    7.25324534261593
C        12.84633428771764    2.35264416003355    5.93324516958885
C        13.29657951264764    3.43109086116024    5.17917164879997
C        13.37614572447047    4.67489054615160    5.79523938117261
C        13.00117622993557    4.85398552491867    7.11437553210969
C        13.83481135204875    3.20847117168392    3.77660521798705
C        13.04649023762348    2.19124555253446    2.96909585006959
C        11.68004560760249    2.02127291083891    3.15141966882895
C        10.96312758100597    1.15161197645371    2.35359701541271
C        11.56962578902627    0.42691216246161    1.33146947187998
C        12.92988442528018    0.62703950965206    1.13416682131070
C        13.65182494711733    1.49763672903692    1.93075885509316
C        10.73633980386991   -0.52250334873721    0.48579468664251
C        10.11468045142416   -1.58954274540624    1.39791102355076
C         9.62610809436095    0.27410247746805   -0.21383024167328
C        11.56202135729050   -1.23539058829165   -0.58855544704882
C        15.25582293834507    2.76961922458157    4.10845208748316
C        15.59674343807371    1.43842579861240    4.29318612587831
C        16.86070081354566    1.08239312482361    4.73632689675720
C        17.82310737927504    2.03929593585207    5.03079294039571
C        17.47042199666940    3.37482926815586    4.85249193089331
C        16.21318364090881    3.72968829610477    4.41072897169683
C        19.21602462659157    1.70580188452080    5.53630891413365
C        19.43377055055194    0.20123266055239    5.71639524830055
C        20.24325081136550    2.22889162298668    4.52246789920814
C        19.43673312986187    2.39575708572861    6.89011643212480
C        13.76248612238588    4.44553142384205    2.89502722961100
C        12.64975295422956    5.27805471532994    2.94143774529118
C        12.53973149638302    6.36674911589634    2.10048746255021
C        13.51745975015531    6.65995103245192    1.15312149451510
C        14.60280106397818    5.79606332909706    1.08008727684654
C        14.72483800044991    4.71115439377277    1.93243635778771
C        13.34820547902324    7.86874481974233    0.24549140176366
C        12.05903024316869    7.69475074051743   -0.57044365074241
C        14.51228718371796    8.04011800757021   -0.73417389616148
C        13.25057007515276    9.14273032439905    1.09827112396094
H        17.67449036911351    6.69626719309990    4.13846041492213
H        15.74005779779338    7.52329024583038    2.78526143836814
H        13.71082695482750    8.37249242840965    3.97492975115669
H        12.21557481633427    9.82999826326217    8.40758298779320
H        13.35626787029993    9.58227509843668    9.75806923378928
H        12.28249384488410    8.70180030392967   11.63360187623862
H        10.50908911047365    7.33020898720129   12.66192536357412
H         9.32746672814303    5.95756957656119    8.79193237775636
H        11.03580060289911    7.37930983798609    7.77666615458995
H         8.47356880336938    4.24544982757985   10.25117093889674
H         7.34331950070493    5.62296323018106   10.08579908340808
H         6.65368305387761    5.16390434380496   12.51732716176979
H         6.13977100310379    3.96723665862962   11.28863008843409
H         8.10741275817025    4.44303008113003   14.15240412494329
H         9.41747187539231    4.10098069121628   12.99153614953007
H         9.28759049580868    2.76400048831793   15.27933712345034
H         8.06190277012908    1.79956753984621   14.40184937912075
H         9.54211153592815    1.76354644889092   11.72400651901242
H         8.79434444951467    0.46102140897114   12.68222924790610
H        11.26449829480435   -0.30743930127558   13.11780806802624
H        10.49300311307322   -0.69041178408695   11.55103417389759
H        12.64873534858274   -0.87777559983482   10.64818286189045
H        13.47140632568185   -0.32765427170056   12.13589885233662
H        14.64060635033536    0.09357134051956    9.83519579410085
H        13.42037212814053    1.38459762676101    9.63110281432171
H        15.23628664719769    2.11290293939895    8.55365280212856
H        16.66856720848088    3.90265956555326    7.75919101397003
H        17.61066258493262    4.98921861472251   11.78104302964242
H        16.13733957756853    3.18377164770816   12.59535464660535
H        18.33832083990765    6.40331260656231   10.00007133500551
H        18.95440758833022    5.35873956363215    8.68890680581218
H        16.13479088176017    8.82362238035971   13.30036569359843
H        14.96589411322088    6.90184366450755   14.31367052536165
H        13.93729928998848    5.20004104422426   12.84107404036445
H        16.12392784624028    9.32170772159699    9.51746107264435
H        17.36948612110501   10.57919528162017   13.07420505673480
H        18.52490967104096    9.26749573052383   12.70464004844823
H        18.06875490826489    8.93146479706500    8.35488652170408
H        18.05659948912553    9.20861272474047    5.94265532214997
H        17.91842404696942   13.45294328474530    6.39042250204232
H        17.92386559170649   13.19169592804489    8.83155028289640
H        15.79968293976416   10.16771833290267    4.84405918531053
H        13.47725196541097   10.80287108327680    4.60145475287460
H        14.71514813036812   14.72377904245383    3.42729881374286
H        17.02832924445967   14.08042631697011    3.69592586673921
H        11.51615623480690   11.62398670958046    4.87743707436442
H        11.66034893836479   11.33167456795244    3.14036323672009
H        10.44768113026522   12.45451480736253    3.75265762870019
H        12.23829580696793   13.85738264190397    5.83220271497875
H        11.09786239789503   14.64190936829712    4.73453904463421
H        12.78619033996413   15.15452869331781    4.77030195959234
H        12.55904487436600   13.15772883161300    1.60330841911741
H        12.86579021008962   14.76933560954450    2.24966061906048
H        11.22393498891731   14.13793175816396    2.21553605066074
H        16.73659812552120   10.43431757358177    2.29975693847247
H        17.42184757645519    8.52268570594026    0.99278778213844
H        20.78900384248778    7.97130598834189    3.56526494329613
H        20.13939042558172    9.93450649568783    4.82167708271152
H        18.61750002582132    5.31240583476597    2.58097963918357
H        20.17958042598489    5.80683271981850    3.23485017205845
H        20.10490518620839    4.77028626035266    1.81079594806492
H        21.03822633231553    8.01107861545006    0.25992662168289
H        21.35984282714760    6.27412296719371    0.24601034741603
H        21.73870272499456    7.22983569646549    1.67589075658347
H        18.68628212100909    7.34545935709319   -0.50571788264611
H        17.69217850553967    6.30607910379462    0.53401556296226
H        19.08245314048588    5.64071801301249   -0.31298306911194
H        18.25336078687642   12.66024259578178    2.03336369098455
H        19.94898041737809   14.15549943747347    1.16397047760759
H        21.93351106866914   14.07608532123408    4.94942276002624
H        20.24338546958887   12.59948568829830    5.80821275798967
H        23.91899243230862   16.26624288216799    2.94827484077578
H        23.75464259876822   14.71000316030020    3.75331904390553
H        22.77754196001646   16.09267734935133    4.27702192061119
H        22.08870469447007   14.28253193832506    0.42805505136927
H        23.27476083705535   13.58980620351859    1.53125941882410
H        23.57042998181350   15.16556600526753    0.78935138261554
H        20.69206959764411   16.28947274455362    1.16719381640750
H        22.16668069335033   17.18543318563581    1.52361108797538
H        20.93431678490943   16.97777935792508    2.77144251110363
H        14.38216484695009    5.37121552876077    9.07762526168215
H        12.53880901550783    3.50425565192239   12.09628169744970
H        11.77504237371818    5.13392746339250   12.03918326376254
H        12.10481411990280    1.67083583006550    7.81465431961733
H        12.78663097778480    1.37247104657336    5.48570742245599
H        13.72007607274396    5.52993372980673    5.23394540635894
H        13.01407707503329    5.85069796680983    7.54110807856173
H        11.16413269823608    2.57024586175403    3.92551885697065
H         9.90459722803044    1.04601387543033    2.53823538123592
H        13.45379968807698    0.10863108445148    0.34770656163275
H        14.70561559013669    1.63514609659737    1.73753010285131
H         9.46864584877548   -1.14187916140167    2.14789575481306
H        10.89592917331069   -2.14768846102632    1.91007867140264
H         9.52176239057943   -2.28672452928911    0.80961458670553
H        10.05937888616305    1.05112303360278   -0.84037547347521
H         8.96442832148523    0.74756628144263    0.50604318164174
H         9.03052602070099   -0.38493571590977   -0.84212872019450
H        12.00030910058560   -0.52187940676356   -1.28253123631457
H        10.91804710389704   -1.90387753416503   -1.15657347449769
H        12.35434378412817   -1.83185434015016   -0.14199696399967
H        14.87315117097254    0.66091232532096    4.09442418966030
H        17.07401717005676    0.03243238540349    4.85893375206840
H        18.17381541002181    4.15777477031630    5.08720832224758
H        15.96598480590847    4.77500102170771    4.30608643708541
H        19.32453127621586   -0.32738768512040    4.77181025775289
H        18.73310721464489   -0.21104211965159    6.43936221381462
H        20.44148938927129    0.02228846300994    6.08611948938722
H        20.06712773162025    1.78857726507991    3.54262178590929
H        21.25045311269912    1.96980180321063    4.84192226617404
H        20.18055882253750    3.30899684050365    4.43196727131900
H        19.35536335168748    3.47508776319731    6.79915601618539
H        20.42882059113087    2.16023152319896    7.27009854709661
H        18.69990130310411    2.05517786291498    7.61597922139264
H        11.85504570687864    5.07525587003300    3.64411330310321
H        11.66263026937135    6.99043828097945    2.18590979239962
H        15.37593753955328    5.94923236975208    0.34389847413689
H        15.58630559175164    4.06587455802847    1.83958808408209
H        11.18620511169205    7.64805173882733    0.07460736919534
H        12.10281881737377    6.77571038305489   -1.15145579113784
H        11.93231280124020    8.53090816500508   -1.25499383045367
H        14.60270816195922    7.17897706303597   -1.39231748686202
H        15.45176623718409    8.18517919033523   -0.20581333260096
H        14.33959416038354    8.91863865303616   -1.35262065824477
H        12.42517504934058    9.08526585515388    1.80271878418925
H        13.08792511219982   10.00738998386152    0.45770990227413
H        14.17009265039135    9.30342570902102    1.65819691296127

