68
CSD_code = NURKEQ | q = 0 | S = 0 | Stoichiometry = C29H32ClN3O2Pd | MND = 4
Pd        0.93672824277468    2.60815114868684    4.90244607441744
Cl       -1.32458350685300    2.13183408130149    4.29956705272947
C        -0.00602803851001    1.84239470032248    7.42136329079761
H         0.85891554708112    1.16890890919531    7.36370437788101
H        -0.81502628747773    1.44470935677023    6.80094549064199
H        -0.34993947610965    1.89414502883187    8.45880292956773
C        -0.82183410619399    4.04495229796150    6.92070680420454
H        -0.54191582571847    5.05806760648435    6.62267954824281
H        -1.28339117432250    4.08076375138740    7.91383462880138
H        -1.55386890756270    3.65513095242828    6.20968566833529
C         1.43335599705612    3.79512818783547    7.72660218387111
H         1.72565558120865    4.73256513448876    7.22853671840421
C         0.99769994116539    4.19519478329894    9.13491813198848
C         1.26121240972073    5.87798846271398   10.74634512446375
H         1.68023105354633    6.87969282755931   10.78194473084466
H         1.72995981064672    5.24079281931062   11.49853250212251
H         0.18460050181158    5.90224128724235   10.92560249076164
C         2.65782602337946    2.90119855217392    7.78273003432762
C         3.12095456933495    2.33067156030050    8.95675815560190
H         2.59311198543741    2.49172880539311    9.88457859435269
C         4.25812689195247    1.53836694128527    8.95343925643753
H         4.60423527617436    1.09616505225001    9.87514092077136
C         4.94612342974694    1.31999778673347    7.77178465254547
H         5.83895682819919    0.71266701015340    7.76975527127218
C         4.49236460458523    1.88096463865074    6.59410431199236
H         5.01851265467077    1.71595082574099    5.66621875721473
C         3.33999937503868    2.66833203528162    6.57983737662100
C         2.82395425067117    3.14725501228267    5.29761576159613
C         3.19526030723922    4.17959780603930    3.22477414477332
C         2.10514182070521    5.00186841311685    2.90200282062886
C         1.18434192928314    5.55300786101867    3.95878845845974
H         1.72728041538403    5.72576172081436    4.89060386502725
H         0.34643965804795    4.84911015643304    4.14006259239358
H         0.75385546025115    6.49618926633358    3.62664583055249
C         1.88229126272561    5.31629503225312    1.56719836501416
H         1.05817507200221    5.96856462716689    1.31303047407525
C         2.68605427025849    4.80712173115001    0.56526103278973
H         2.47984772743560    5.04265856542091   -0.46794149058465
C         3.76193754326217    3.99907714116528    0.89228712545050
H         4.39678921419592    3.60709739685185    0.11030772060916
C         4.04047433374487    3.69561596407916    2.21231016234836
C         5.20308376842449    2.82900961229077    2.59168148863955
H         5.78772992345078    3.31688576088867    3.37001254824792
H         5.84058923579636    2.63368848421862    1.73261230374713
H         4.85032609249478    1.87874821039184    2.99540425841436
C         1.34125382200839    2.00603415668036    3.14566225081440
C         1.08989307984789    1.56488180520937    0.67937584783352
C         0.01524098515959    2.22041676031570    0.06190771824341
C        -0.89121287319029    3.08916026433290    0.86621288779168
H        -1.33512647208282    2.52938866543059    1.69036061738265
H        -1.68646652377609    3.49826999907584    0.24959603028210
H        -0.32438716183186    3.90819259402559    1.31086555205952
C        -0.15212206761644    2.03356562003747   -1.30119782160035
H        -0.97205291352466    2.52596937293650   -1.80251412090645
C         0.71163307483059    1.22568312492030   -2.02052464761436
H         0.56258211972234    1.09175328731767   -3.08149528391770
C         1.76431556789629    0.58571883672727   -1.38855058105517
H         2.43213546107062   -0.04476068501155   -1.95670905049701
C         1.97269939269851    0.74237278175646   -0.02794795378793
C         3.10488440159806    0.07237123113114    0.68414702782063
H         3.83429995484529    0.81584490333799    1.00288918421419
H         3.59805212943800   -0.64519972110686    0.03440584455178
H         2.74761058955754   -0.44345536546857    1.57466606738840
N         0.36137916287432    3.17709772613723    6.91355978708360
N         3.53932596553924    3.83610185040708    4.52457821342222
N         1.26920389743597    1.74610249116560    2.01099173316475
O         0.28855892650343    3.57411938010438    9.88309865328173
O         1.53224379489981    5.37981361474304    9.44189950271049

