70
CSD_code = NURMAP | q = 0 | S = 0 | Stoichiometry = C25H39F3OSiTi | MND = 12
Ti        4.17678211124663    2.54893560865900    3.66604143326425
Si        2.34591850724244    5.37790813662888    4.08990814531787
C         5.99507438387316    3.42501259951893    3.36707746029708
C         6.37346367459640    4.67233354266320    3.16843064351501
C         3.37443590897304    1.49212059657984    5.55248852277811
C         4.22569774359802    0.38126091836033    5.25345258104500
C         5.56119702034599    0.82259060980330    5.32880209762415
C         5.56383461258252    2.18004092121443    5.74321406751594
C         4.21362059736319    2.59107082327210    5.92639914372420
C         1.89944151832397    1.44440418801053    5.84814903073191
H         1.73613925394425    1.46787902320960    6.92901696994427
H         1.44136528875184    0.53318163747668    5.46792938952170
H         1.39085646301338    2.30392127449128    5.40963519622379
C         3.82385429173192   -1.06471909749769    5.28168461263214
H         4.34209248461966   -1.66194051859752    4.53409958740258
H         2.75347231386540   -1.19564456231383    5.15595180784905
H         4.09256545321676   -1.47297386022781    6.25958072460425
C         6.78581633007407   -0.03752720649907    5.24094391116188
H         6.56419350206155   -0.99707082403635    4.78186208064461
H         7.17512360197340   -0.22541265006804    6.24409267939099
H         7.57192656473048    0.45153645218427    4.66853688847410
C         6.75872066483380    2.93519905466730    6.24487403940472
H         6.63195189028303    4.00942213984862    6.11413709182321
H         7.66918291940329    2.62479001829048    5.73749214056080
H         6.88638443934197    2.73888311935935    7.31283606089111
C         3.81007839865734    3.74886235440053    6.78809296139169
H         2.75844847392395    3.98643214391737    6.66323628481764
H         4.39885809966960    4.63291480632716    6.55680417973979
H         3.98332772830132    3.48697418783817    7.83639845304072
C         2.65749227289209    2.17133874803987    1.91303157737207
C         3.17755281005725    0.90599281091234    2.33862746732177
C         4.55920384699824    0.87197511664823    1.99840419907293
C         4.87990852073785    2.09853485665724    1.35904671446550
C         3.70130174348638    2.89195562133023    1.29456836147837
C         1.20014856025163    2.52361169843530    1.90884474997625
H         1.06042699647092    3.59963342431848    1.97297595441991
H         0.68354330313398    2.05645454984509    2.74644520695169
H         0.73356735067083    2.16824126832192    0.98533268963467
C         2.28069731800144   -0.28250059373913    2.54920959512652
H         1.55352615248800   -0.12398123473649    3.34394734396153
H         2.84852450074325   -1.18281045643909    2.76138076279620
H         1.71907491285662   -0.45642421940457    1.62690960383924
C         5.47244405924531   -0.32007518795689    1.98753277086162
H         5.59353042236305   -0.67572405061110    0.96107262265685
H         5.07305151612672   -1.13939458829311    2.57857320757242
H         6.45955644749059   -0.06344828140811    2.36986280913744
C         6.12395847419169    2.36868865442413    0.56399005980834
H         5.95108060040968    2.07955385678522   -0.47647132464382
H         6.96900678770852    1.79345157887411    0.93414332119830
H         6.38854000867008    3.42496455260499    0.57809935716938
C         3.60751207413753    4.18164192745348    0.54034002806150
H         4.12327803062416    4.08540429039293   -0.41593576714595
H         4.06782996245004    4.99737929807152    1.09718413117727
H         2.57065206514327    4.43895642384342    0.34409558837019
C         1.95404314774771    6.39020823825687    2.50708992279928
H         2.86008635642699    6.75452573711422    2.03550814858253
H         1.36298681709557    7.25847205427382    2.78191389848253
H         1.38569169888455    5.84277544236334    1.76252037676225
C         0.62585913067328    4.93456794998534    4.83956301504956
H         0.12048480800813    4.15004866669256    4.28391280395312
H        -0.01566272569157    5.80924317144064    4.81580577835313
H         0.68896528533435    4.61753488937959    5.87658963960416
C         3.16891442509781    6.65992176502292    5.25873726600355
H         2.88842005592207    6.52442461478743    6.29810567823774
H         2.86557329508260    7.66188038042099    4.97411489563398
H         4.25081643803122    6.62223957598326    5.19287733478682
F         7.01928655071446    2.49162109484779    3.30912510172269
F         7.60374440914977    5.17191072936353    2.93814260031816
F         5.48332586585746    5.68038799064992    3.15991842741373
O         3.22423146376900    4.04653219756612    3.86739589632467

