89
CSD_code = NURQUO | q = 0 | S = 0 | Stoichiometry = C41H41O2PRuS2Si | MND = 9
Ru       10.15953454578370    7.98599297634278    2.63389755777823
S         8.21736623045438    8.60412609947474    1.09181655570365
S         8.74599660035926    9.02367568077245    5.67626773990694
P         7.40205413887636    8.63194462816785    2.91676682816400
Si       11.25546784634745   10.01758534259454    2.17369391516642
O         9.85359386162264    9.79111421083386    6.18337663223141
O         8.65435143486619    7.65511498610348    6.13542996505122
C         8.81866859977887    9.14449338747318    3.89768654154637
H         8.84270772487997   10.23703029536846    3.76334261643354
C         6.05638026233400    9.85969412746585    2.99255412007969
C         6.33491089261958   11.11085264103020    2.45339244700224
H         7.28719150150628   11.27900838749433    1.96680417036337
C         5.38961901913420   12.11548071289853    2.52443672364425
H         5.60849465541539   13.08504045388667    2.10392935923237
C         4.16765838318629   11.87173703241189    3.13112469296315
H         3.42608770284724   12.65480924490945    3.18525935615575
C         3.89014164559517   10.62338672141298    3.66425956042387
H         2.93487524376476   10.43418752864731    4.13102025553054
C         4.83288977356327    9.61358340707640    3.60131857930989
H         4.61946845397428    8.63900751583368    4.01763542974603
C         6.54994703686502    7.05195183866767    3.23758934416447
C         6.61652769773867    6.30510251193196    4.40532436124102
H         7.24470417095202    6.62747703370112    5.22190098937713
C         5.88589043661075    5.13079397639169    4.50068340252812
H         5.94236289104215    4.54370630159318    5.40578404937203
C         5.09077650578672    4.70759368867865    3.44883569087608
H         4.52696581710448    3.79024706719167    3.53305101909940
C         5.02017689044666    5.45958677889754    2.28552659759971
H         4.40185456798589    5.13213271537516    1.46308789881045
C         5.74747110344181    6.62869865189383    2.17841571304605
H         5.71348692034773    7.22201779355218    1.27315585141018
C         7.22145030658160    9.87377583329503    6.12567689548609
C         7.12385964086640   11.22591511871622    5.85306228372475
H         7.96771358599152   11.74293350741375    5.42328853665253
C         5.95053897671950   11.89409461375289    6.15558154426158
H         5.86253072912410   12.94922708145715    5.94643922928761
C         4.89162586356541   11.20686373290311    6.72874475759130
H         3.97829380246205   11.73112049473254    6.96742211108867
C         5.00255352487666    9.85430937874142    7.00548789970808
H         4.17964578028257    9.32402288952663    7.46110248069612
C         6.17457354459603    9.18145811700593    6.70009357310549
H         6.29503287855173    8.13129410144387    6.91583015675109
C         8.78935806426428    4.91231293897591    1.41564336191152
H         8.29973806873101    5.54211772999506    0.67101335079683
H         8.03276001332617    4.53260547604491    2.10006724414972
H         9.24425198326149    4.07017780647043    0.89243827684376
H        12.35298422180086   10.44316603829800    3.09621282065832
C         9.84179486518408    5.69012065670098    2.14911518685628
C         9.82714164517577    5.82698953010950    3.53430507231171
H         9.04706774321947    5.35673300942661    4.11890583554728
C        10.84886687695374    6.55025810863800    4.20152244641401
H        10.80511069003252    6.61644830460756    5.28214806738043
C        11.99083321260719    7.01401088423734    3.51089849897616
C        12.00882589667186    6.85830730708046    2.09257047342676
H        12.89258237275672    7.15092377678851    1.53216052110225
C        12.90002321435850    8.22960603253451    5.54215242982534
H        13.77491300201749    8.77356555316979    5.88961737369022
H        12.62565522499943    7.51216274363775    6.31227962917398
H        12.07840836477761    8.93367329129247    5.42024280894321
C        10.92045238923939    6.27220123169266    1.42014323517569
H        10.97473074813928    6.11918489349878    0.34513190736663
C        14.17280522067429    6.34695431122515    4.45756954798506
H        14.44376505040231    5.87546271351071    3.51482219235361
H        13.70034124523573    5.60035197956860    5.09339055784307
H        15.08100980747224    6.69105155529132    4.94613019511943
C        13.22006736992483    7.52702319486588    4.22334030512822
H        13.71551919357849    8.24424349238359    3.55866793164631
C        12.11593304801708    9.82324320682381    0.47968869991852
C        13.43472219529065   10.21925352008030    0.29332004561693
H        13.96651255043054   10.67388670201996    1.11639068362109
C        14.07253423516016   10.04493592990482   -0.92224636825462
H        15.09922532440331   10.36113252774814   -1.04600923696260
C        13.39598483695524    9.46552637209774   -1.98227526110168
H        13.89105595571902    9.32771708315144   -2.93335549081375
C        12.08110989442171    9.06317546797296   -1.81553314345678
H        11.54678550948215    8.61061496527332   -2.63976641881262
C        11.45321285165227    9.23831292341254   -0.59552002108150
H        10.42560852970574    8.91715579902501   -0.47054071913530
C        10.21586552139262   11.62276846803725    2.07181887359950
C         9.64105615853463   12.06633904256427    0.88554084735326
H         9.82479472434821   11.51560878412440   -0.02502630271890
C         8.84399247814834   13.19835641730285    0.85456990083810
H         8.41152802654427   13.52870810171353   -0.07974387059209
C         8.59836997369511   13.90687999854671    2.01914964065439
H         7.97964906426205   14.79338563172653    1.99796392162269
C         9.15846235799259   13.47782216209853    3.21156422371325
H         8.97488449605736   14.03085455353205    4.12315610412733
C         9.95939761346842   12.34963456756360    3.23276248699225
H        10.40486698067226   12.02374660817922    4.16310470191522

