47
CSD_code = NURQEX | q = 1 | S = 0 | Stoichiometry = C20H20MnN2O4(1+) | MND = 6
Mn        2.87988420463849   -1.16696161742285    7.38558509061602
O         2.67720905845317    0.28203104835520    7.04166224239717
O         2.89450044077345   -2.66976560103741    7.41051041844057
O         4.62741337943541   -1.04738916748766    7.40541807968377
O         2.07596089888926   -1.02211328995245    8.93223413048802
N         3.10471361004134   -1.29274075815162    5.15442976770424
N         0.82747964410919   -1.55894161948072    6.56716752104438
C         5.43816500602460   -0.32829462804374    6.68507138594764
C         6.61475546771205    0.18734236242128    7.25918732031093
H         6.77299849865721    0.01631133751387    8.31293119858644
C         7.51535020021483    0.90684868415643    6.50841132104571
H         8.39756182784343    1.30960302882830    6.98212719846656
C         7.29779589069179    1.11848001763949    5.14811358091796
H         8.01037654736284    1.68150057092279    4.56753483310863
C         6.17259597179856    0.59903480672577    4.55322395099065
H         6.00715002500461    0.75053855681410    3.49710030706652
C         5.21394546658645   -0.11898546579255    5.28853498834674
C         4.08695601564049   -0.68494159512558    4.60625188594281
H         4.12372110412224   -0.58853343410287    3.51952424138697
C         1.98089641640023   -1.87139289944214    4.46308563270073
H         2.02925961965027   -2.95361779385357    4.65182022201638
C         1.92632646771184   -1.60850172254300    2.95470767120300
H         2.81435992064473   -2.02992375439046    2.48096557858419
H         1.90242851589341   -0.53162369458011    2.77581910977640
C         0.68230444833686   -2.24945489596895    2.34646235144175
H         0.66036084436322   -2.04515152720751    1.27611785605261
H         0.72361630898114   -3.33157488580008    2.47891599321823
C        -0.57422157190626   -1.69726138508803    3.00538089558971
H        -1.45744962423146   -2.16252886108238    2.56803151502185
H        -0.64146896389002   -0.62266110564309    2.82977196882006
C        -0.55253976471696   -1.97375825830835    4.50588120808601
H        -1.45184315344578   -1.55503300815140    4.96039779901765
H        -0.53578441766580   -3.05251418103183    4.67391711013783
C         0.68530020863435   -1.34106439516859    5.14990160424431
H         0.66464509550431   -0.25092101893382    5.00772936657242
C        -0.02673009780511   -2.13734886237190    7.32261929575551
H        -0.96739529859753   -2.49465214726985    6.89964187592539
C         0.10490308725817   -2.34943131162516    8.73458841799293
C        -0.88250006114294   -3.08306087588853    9.41410439227764
H        -1.69115900781736   -3.51370044674239    8.84322914480251
C        -0.83263496056644   -3.27181824553477   10.77489294621753
H        -1.59120120737192   -3.85379810194055   11.27214716393829
C         0.20300640299009   -2.69847573467332   11.51039314899188
H         0.24678921447823   -2.83915445472165   12.57960426183894
C         1.17555844338855   -1.95125588753566   10.88743341876117
H         1.98189974269023   -1.50207562603410   11.44655220323705
C         1.17034013423282   -1.77036815524893    9.49206838528813

