23
CSD_code = NURSIE | q = 0 | S = 0 | Stoichiometry = C4H12MoN2O4 | MND = 6
Mo        4.62570896790071    1.49102816335972    2.04856555258899
O         3.26767227624994    0.17083639087475    1.84164285308964
N         2.59813779422989    1.36897510265022    1.75210507991975
H         2.14230611891537    1.40565336683733    0.82381873028872
O         4.81553575508179    2.26688597629969    0.60263747673800
C         1.59992510609382    1.51153358095743    2.81249861123928
H         1.22358371652403    2.53880919735894    2.77159275198009
H         2.14065173125878    1.36808349399991    3.75554096906194
C         0.47111923970529    0.49689521377754    2.66787462850326
H        -0.20233259483216    0.55791746844317    3.51766367786262
H         0.88969938900755   -0.50699775854003    2.62354019190321
H        -0.09949436161324    0.68211262622921    1.75889905201176
O         5.98374304786973    0.17083277328749    2.25548351742584
N         6.65328011200437    1.36896984152981    2.34502565969197
H         7.10911165144177    1.40564419159206    3.27331245442745
O         4.43588392303254    2.26687993579136    3.49449693842717
C         7.65149205320163    1.51153087118663    1.28463180570496
H         8.02783224186101    2.53880694879447    1.32553924896086
H         7.11076397174959    1.36808327113551    0.34159016887428
C         8.78029817801125    0.49689336510859    1.42925468419988
H         9.45375227808491    0.55791581641634    0.57946767660180
H         8.36171936196258   -0.50700014616410    1.47358638651498
H         9.35091004225892    0.68211030907392    2.33823188398357

