99
CSD_code = NURTUP | q = 0 | S = 0 | Stoichiometry = C38H54N2NiP2S2 | MND = 4
Ni       -0.00027188022722   -0.00105842055211   -0.00168613105806
S         0.88732445353957   -1.60204678800437    1.27542772847807
P         2.03803650098284    0.00037172703115   -0.67345090350643
N         3.59046927365480   -1.78958221684866    0.69742584102210
C         2.43692026481276   -1.31251556472188    0.50242434838536
C         2.77687071784186   -0.49615411176135   -2.28877891908388
C         4.29115845573906   -0.66143383908192   -2.21270743864838
C         4.82488559094415   -1.15951683402026   -3.55465408174211
C         4.15137056212143   -2.46938635312360   -3.95234652391148
C         2.63895771141690   -2.28625206625780   -4.04091614042524
C         2.09552327185708   -1.80192195441829   -2.70212131406972
C         2.91979902241868    1.48204516752402   -0.00339824439042
C         2.77812379903922    2.62868931109455   -1.00405255479306
C         3.24006613371172    3.94965236318941   -0.39635740759297
C         2.44288986882938    4.25674808610530    0.86674619957481
C         2.63779211036138    3.14209947545522    1.88856937007987
C         2.19747637241751    1.80344806838852    1.31068625458952
C         3.92471650925878   -2.82199895742876    1.55205772686889
C         5.15154953578038   -2.73887218689907    2.21358139178139
C         5.56976858494886   -3.76888816660528    3.03075309364280
C         4.78741469322386   -4.90319061568907    3.18240105317250
C         3.57931126826199   -4.99941678775981    2.51181918062022
C         3.14257161374048   -3.96772679521329    1.70458794321040
H         2.51439685269702    0.28836199363732   -3.01125410905897
H         4.76368450816852    0.29048307336756   -1.96157142730918
H         4.53308645379337   -1.37756419095717   -1.42473361452640
H         5.90509534601526   -1.30214283783011   -3.48639726050784
H         4.63381229865859   -0.40690666305030   -4.32427428145245
H         4.38001374599735   -3.23352942781821   -3.20608504041682
H         4.54139224753977   -2.81030029524437   -4.91344286881678
H         2.16246181118035   -3.22944521677527   -4.31549639249783
H         2.40405963818374   -1.55272379602240   -4.81593678990976
H         2.28720667928664   -2.56191950480188   -1.93817291297756
H         1.01213433556197   -1.64461363993383   -2.76093995873544
H         3.97170597268537    1.24066459956847    0.18731089286312
H         3.35734662557618    2.41277989465289   -1.90492126311130
H         1.72454477407923    2.71317066326249   -1.29175755253709
H         3.11057288767302    4.75126294919547   -1.12599116364942
H         4.30313887763766    3.88763867118294   -0.14963066486395
H         1.38342736912235    4.33684452558133    0.61376267424067
H         2.76228542270402    5.21094439836373    1.28992434831894
H         2.06772040722955    3.35639383327145    2.79505070370425
H         3.69394578143208    3.08314600032056    2.16375147350813
H         1.10266354366780    1.83029879461019    1.10840961094173
H         2.38516287595347    1.00682166650726    2.03740962317482
H         5.75204896460568   -1.85043624048368    2.08602223076011
H         6.51490410352570   -3.69119174789595    3.54898780477012
H         5.12049611780518   -5.71056267582907    3.81768340924230
H         2.96892937202238   -5.88450732827987    2.62165707142975
H         2.20492013809491   -4.04629134939096    1.17470852014408
S        -0.88872220242668    1.60049755846462   -1.27761239022585
C        -2.43766304936659    1.31297078844471   -0.50236431858846
P        -2.03869652859898   -0.00223409567592    0.67084282302178
C        -2.77687324752446    0.49135305785909    2.28735583287002
C        -4.29123921256238    0.65713630651258    2.21227341715637
C        -4.82383653982063    1.15317411138084    3.55536938245474
C        -4.14986846180682    2.46212445413379    3.95558112355195
C        -2.63758557074134    2.27788641309234    4.04278624668145
C        -2.09453064482102    1.79586056322797    2.70295282989464
H        -2.51436257930678   -0.29468573608869    3.00814798827417
H        -2.28629940243522    2.55743174371778    1.94061258620137
H        -1.01112831055715    1.63799506115624    2.76098397316040
H        -2.16053929317367    3.22030211065896    4.31903494152394
H        -2.40271396978132    1.54282144352362    4.81634508450575
H        -4.37830550185797    3.22761971836522    3.21067440314002
H        -4.53944445090382    2.80155714353714    4.91742124180962
H        -5.90399510103638    1.29640070915972    3.48796835282626
H        -4.63277388171390    0.39903724723340    4.32345902415869
H        -4.76426625420772   -0.29413331093705    1.95944381279495
H        -4.53317944773917    1.37496095398464    1.42587833221578
C        -2.92129548259497   -1.48243676425644   -0.00156279912946
C        -2.77997163689781   -2.63053729128031    0.99749955114975
C        -3.24236099863897   -3.95042942117880    0.38781038785101
C        -2.44544367561631   -4.25639460210608   -0.87573641413094
C        -2.64008762131234   -3.14004146116450   -1.89572520001004
C        -2.19916141130791   -1.80234502767326   -1.31612759652465
H        -3.97315423395752   -1.24043235047583   -0.19184106004393
H        -1.10436858991359   -1.83019214989741   -1.11389689032949
H        -2.38635112666699   -1.00461734205397   -2.04178077256848
H        -2.07023926069727   -3.35331716802683   -2.80257402111614
H        -3.69622423486526   -3.08018918196628   -2.17075128434375
H        -1.38600665148585   -4.33719663308522   -0.62295787111485
H        -2.76528065237687   -5.20986388350231   -1.30022669528504
H        -3.11309251253619   -4.75312278649240    1.11626169361554
H        -4.30544047759985   -3.88773674980706    0.14134123497730
H        -3.35905584435559   -2.41569964911210    1.89872630307543
H        -1.72638834203878   -2.71582164613619    1.28496013060230
N        -3.59043484913987    1.79321783562303   -0.69412440684108
C        -3.92382621404450    2.82832674133136   -1.54586737308246
C        -5.15231045948972    2.74988731500369   -2.20484988067639
C        -5.56957151022485    3.78271866560662   -3.01896415450210
C        -4.78441847557214    4.91518181141087   -3.17013166670955
C        -3.57463340865852    5.00679006197864   -2.50196616745019
C        -3.13894978004337    3.97229107135793   -1.69775775590426
H        -2.19985784045267    4.04728800263833   -1.16986724009557
H        -2.96218024470535    5.89053840068525   -2.61118208140106
H        -5.11678790508634    5.72485923819405   -3.80286228934895
H        -6.51606369371237    3.70863170965190   -3.53523168598963
H        -5.75490080119710    1.86279832337182   -2.07785221703733

