54
CSD_code = NUSCUB | q = 1 | S = 0 | Stoichiometry = C24H25ClIrN2S(1+) | MND = 8
Ir        3.28026452087365    2.29812169209532   13.81465801323598
S         1.11857703723846   -1.48651692193093   15.04244278363003
Cl        1.32307343073433    2.88424009563171   12.63668496359329
N         2.09185808996165    0.87669794821030   14.83805646511223
N         3.27925019393326    0.70052488538415   12.51348792095189
C         1.37528073079765    0.87189271804636   15.99523163149860
C         1.24342488574293    1.99225030461598   18.20364588300206
H         1.54961896948688    1.06961192925661   18.67436523379437
C         0.45071967434313    4.35414183115668   16.98846814906797
H         0.11775333068510    5.26660804429617   16.51741089718961
C         2.52226534315846   -1.54121291576740   12.09951497997064
H         1.99697481911166   -2.41012674950948   12.46291055888680
C         1.15361800045712    2.06469738450892   16.81501698846205
C         2.02896668311608   -0.28891002619978   14.21130620629861
C         2.63360502260945   -0.41603292113964   12.91516228379959
C         3.82207142171913    4.38807560615619   14.42112181150955
C         3.78300673479477    0.73470012809543   11.28239626557989
H         4.25135972884202    1.65768187600039   10.97671457232365
C         0.75640665381393    3.25321568084715   16.20734194595659
H         0.65573899819862    3.29961698549445   15.13423012390516
C         5.23056926799049    2.60635168907274   14.88394674276030
C         4.49820250799955    4.00466040100205   13.19475116562470
C         0.80012877250584   -0.34092302896172   16.26861312080725
H         0.18603904365346   -0.59282942306739   17.10947161126506
C         5.41909910719628    2.95585058381691   13.51230986933277
C         3.70596568923728   -0.33907168782252   10.41539256518123
H         4.12956075689017   -0.26168651882572    9.42764658120465
C         0.95423365339048    3.10294959033525   18.97415200449930
H         1.03055227880904    3.04499977309364   20.04878748575930
C         4.28123438600431    3.53248767540833   15.45613872490720
C         3.07364958535848   -1.50458799865384   10.83411802440260
H         3.00074428598945   -2.35758251178356   10.17861268985440
C         4.05639828920834    3.68498356315673   16.92076967750845
H         3.17984829988232    4.28765882609854   17.13480898368768
H         4.92802307440974    4.17852042311129   17.35386478749772
H         3.94225846532913    2.72175272256879   17.41197960960742
C         6.08342687254758    1.66397224800049   15.66406933905708
H         5.53558517480385    1.23685367464616   16.50045841110559
H         6.94315677295909    2.20115639672176   16.06768079735339
H         6.45542642397265    0.85638956136233   15.03849679591680
C         6.48500389267027    2.39722964710136   12.63255884760351
H         6.51316221052128    1.30954692097058   12.66989602869774
H         7.45135808652023    2.76383038390431   12.98135855159106
H         6.36250704728416    2.71144882719081   11.60013667052177
C         4.42300608990731    4.79456623656272   11.93163586319704
H         4.91994389787944    4.29043672450571   11.10733247760959
H         4.90229336883862    5.76285645847537   12.07955000938742
H         3.38606295290294    4.97408966082576   11.65514597491486
C         0.55222118485232    4.28343681655101   18.36867220821231
H         0.31125118692578    5.14386742491271   18.97364437319947
C         2.96170645944098    5.59734286958830   14.54871381144933
H         2.16636891654882    5.58361036357785   13.80594160156121
H         3.56576545763022    6.48825813570129   14.37418955428778
H         2.51721227032230    5.66409599559900   15.53658736267106

