53
CSD_code = NUSCEL | q = 1 | S = 0 | Stoichiometry = C22H24ClIrN5(1+) | MND = 8
Ir       10.55474213068030    5.83623083189813    4.74031459243270
Cl        9.34165987336008    6.39470691289052    2.79568354575477
N         9.05758874359192    4.39176670311602    5.12201958106198
C         9.34643274143419    3.16204919942559    4.66434382987327
C         8.36486332105114    2.25307338918935    5.08587801384256
H         8.32878428081489    1.20612769415164    4.87259939973105
C         7.47781324230782    3.01295628867084    5.80754665217574
H         6.57246803343553    2.75266196071379    6.31717054808444
N         7.91822216045384    4.29120074043243    5.79362770767451
C         7.19848008810670    5.38892603552140    6.30884351941440
N         6.54301100318616    5.14134043835830    7.43196161726670
C         5.80474419311414    6.10692728752121    7.94694263650806
H         5.28868761647256    5.85816804323149    8.86296860938040
C         5.68702554318889    7.36004648359739    7.35926181417533
H         5.06753212342524    8.11797535345395    7.80987127315726
C         6.37042597395606    7.60222628373808    6.17705787024500
H         6.28436893461326    8.55492172386195    5.67682024691620
C         7.15371030995472    6.59776559398860    5.62595953649890
H         7.67748273656895    6.73158852957636    4.69231171108499
C        11.72528074984953    6.15378089051231    6.62948042432498
C        12.56884033549361    6.48199052204235    5.52791492903410
C        11.93162012072036    7.52592956666481    4.77806420349358
C        10.73882274515204    7.92635053265400    5.50148727046192
C        10.61454364986660    7.07961443079543    6.63467907847837
C         9.92486093199517    9.12733792897114    5.16119276464464
H         9.60602724990676    9.09306474148284    4.12102989048860
H        10.53137095129639   10.02336050742563    5.29513317748725
H         9.04604966984473    9.20451134601884    5.79415204049289
C        13.92135452405338    5.90757134106103    5.28255025826063
H        13.94387038611000    4.83578622133905    5.46982125635272
H        14.62995787543614    6.37749498108356    5.96620126329857
H        14.26339596087036    6.09559429891363    4.26863201733669
C        12.06123819956852    5.21797309768395    7.74029726886825
H        11.16315428932980    4.81569086863956    8.20260520595830
H        12.62285982759216    5.75171104390941    8.50854473965981
H        12.67494033230687    4.39132093771308    7.39095292509642
C        12.50883587246017    8.30253612113532    3.64254331367833
H        13.33282428058864    7.77557984375420    3.16942289209209
H        12.88288461190169    9.25860357337454    4.01044505623036
H        11.74798912775805    8.50797206084032    2.89250234069457
C        10.49176116693493    3.05043558058881    3.79829503364433
N        10.78220554208638    1.91636562086730    3.19347107365835
C        11.78444222149010    1.90506102014154    2.33615360210472
H        11.99452295663467    0.95551008818809    1.86500969815657
C        12.51123368938806    3.05684053834763    2.04775534200437
H        13.30639352909170    3.06237952606376    1.32198917125161
C        12.16455959930834    4.20501431177019    2.73820459520683
H        12.67499418943699    5.14227240773764    2.56725439564758
N        11.17735599623078    4.20784035105219    3.63150957569196
C         9.67222802262809    7.23365250356015    7.78010876124460
H         8.83401056392865    7.87627944632082    7.52825651811968
H        10.21116120020094    7.68538490539819    8.61441572584764
H         9.28646658083252    6.27422935060160    8.11904148571081

