41
CSD_code = NUSCIP | q = 1 | S = 0 | Stoichiometry = C20H16ClN2RuS(1+) | MND = 9
Ru        9.61728167691399    2.96535138272409    0.46223439463892
Cl        9.43592299356757    1.24513498016169    2.02930144338183
S         6.20066841483921    4.85634505646746    2.60443430556246
N         8.46177831250613    4.05441116872898    1.71198913993773
N         7.78462616915672    2.33166118905401   -0.03683888746232
C         6.73500983698413    2.88804528835984    0.61374368654115
C         7.15509841816386    3.87491505369060    1.56724764092228
C        10.13710898948442    5.23700244826491    3.08695067773548
C         5.42093425258698    2.48022126798441    0.38986406235176
H         4.61943105090486    2.95532207204255    0.93273019253890
C         8.75465704009396    4.96151857300704    2.68322240959507
C         7.54763887851066    1.32741341606052   -0.87629683528671
H         8.40924810606121    0.86119205377826   -1.33516424755135
C         5.18563924058927    1.45902366786254   -0.50979426947042
H         4.18184754311084    1.11593144086779   -0.70161726531660
C         7.64186596688295    5.50852971075720    3.25927094161553
H         7.60849249049233    6.23477508063464    4.04630106790001
C         6.27192836251712    0.86611400079064   -1.14464557401182
H         6.13354687774563    0.04880276990876   -1.83310618847119
C        10.60529381283128    6.54388793625734    3.19413809157821
H         9.95274113485507    7.36894797356744    2.95068241796120
C        11.57744890833844    2.04557995329035   -0.40590727016351
H        11.99448422362599    1.04901438514384   -0.30580228255151
C        10.97233165172058    4.16774847712218    3.40762814055282
H        10.58933727532022    3.15666499217520    3.36581581005581
C        10.21199260669090    3.66060271849720   -1.61856760841041
H         9.59331817098877    3.90700889672877   -2.47457357606890
C        10.60414155565363    4.66845904654426   -0.71980122866930
H        10.28677078987440    5.69247945083451   -0.88115013784913
C        12.01366564189346    3.07716776753271    0.47161492315083
H        12.75694923301559    2.85871078351420    1.22831333901360
C        10.73166466899738    2.34933982777927   -1.47660905780715
H        10.52084341868561    1.60143573363779   -2.23245102660929
C        11.90784073836639    6.77692126459945    3.59776778699353
H        12.27171933292380    7.78974590216537    3.67506650833852
C        12.73992549231930    5.71378198086933    3.91299976865585
H        13.75156800543716    5.90086233915480    4.23827658059207
C        11.55311322932226    4.37965283857333    0.29464991894820
H        11.95007588812198    5.18450778362437    0.90057084208025
C        12.26905814654743    4.41327021047208    3.82456024180970
H        12.90939145335601    3.58719911677158    4.09375112324673

