131
CSD_code = NUSFUD | q = 0 | S = 0 | Stoichiometry = C60H62O4P4Ru | MND = 6
Ru        0.91918019432371    3.79073417393409   24.94642561314214
P        -0.20334570243805    2.72536821552445   23.28921666076394
P         2.47483187494570    2.14217810283006   24.94533089907001
P        -0.05613645443837    2.92505657453316   26.79975989767139
P         1.92644469470920    5.37226173988408   26.22183772032524
O         0.15879930790414    1.20639971366143   22.83712482396776
O         1.90750083859660    0.62475603314891   25.16336062536356
O         0.96273834916676    2.50465560920537   28.00684126826968
O         1.93162332284748    5.30366660064342   27.84613370680637
H        -0.17684604104489    4.85581970775298   24.78700595888397
H         1.60044460575525    4.52609518804854   23.78226980562981
C         0.06673213706086    0.06363723949129   23.67718172801538
H        -0.57635163085639    0.26690026548616   24.54102404835456
C        -0.52462246832077   -1.06604515458702   22.83262903483865
H         0.05439677743917   -1.13540520036320   21.90833060421309
H        -1.55135072150080   -0.80478914084720   22.57272191605723
C        -0.49140031754893   -2.39962896312537   23.56685519586769
H        -1.09869171226881   -2.32870651837346   24.47166879364356
H        -0.91789351316827   -3.17607608834429   22.92944234585914
C         0.94266897024432   -2.75139104351111   23.94061727921664
H         1.54737640484209   -2.83731698535310   23.03508398461213
H         0.97385192418723   -3.71065242943894   24.46002884487394
C         1.51614148615604   -1.66695631472727   24.84163525775798
H         0.93574188332363   -1.61012102205693   25.76377922566110
H         2.55244100901693   -1.88853624398408   25.10423995082500
C         1.47082418715876   -0.29088915974916   24.17761828682639
H         2.14977813675636   -0.26310211116419   23.31127229369741
C         1.41942188729775    3.30778662120811   29.07789662980439
H         0.59122459742261    3.91754139084608   29.47092928312349
C         1.91180132040962    2.33317133930282   30.14752318455751
H         2.63845780878780    1.66640663190143   29.68087132340930
H         1.06385911131806    1.73252681419122   30.48245911749383
C         2.55835660943980    3.05710697168473   31.31997097401983
H         1.82044875033804    3.69354496425147   31.81342100774011
H         2.91472824267394    2.32619246612627   32.04780445269812
C         3.71609448415965    3.91024275067050   30.81816869642044
H         4.46108145600575    3.27121060785621   30.33947639098350
H         4.19461664116596    4.42689735110776   31.65192036628757
C         3.20928237719625    4.93386242317293   29.81110118954973
H         4.03736929587138    5.54007891813059   29.44136260466056
H         2.48582352766868    5.59938384589823   30.28869228908191
C         2.52236662419526    4.26689310056937   28.61834258522101
H         3.25393434302097    3.70779471591502   28.02399944629055
C         0.03714739951196    3.44772133829723   21.62736981141117
C        -0.29175576067594    4.79156333163395   21.48719527367770
H        -0.64108343306967    5.33351933436886   22.35688998326715
C        -0.14908582012193    5.42080218185232   20.26600858986921
H        -0.40573488526431    6.46532453174048   20.16195297529205
C         0.32684018954142    4.71187297015604   19.17331173421226
H         0.44215678121726    5.20293360412204   18.21760332857280
C         0.65857282188315    3.37531301121620   19.31025495308178
H         1.03452201336716    2.82185004092157   18.46087152448557
C         0.51229248492208    2.74009966822890   20.53207195955108
H         0.78113889848826    1.70004281023409   20.63830377958159
C        -2.04286339472261    2.74266303830668   23.18236071002639
C        -2.68404424525142    1.90707146011479   22.27545861928801
H        -2.09501939515404    1.24032939163437   21.66182520311400
C        -4.06016554054441    1.94020054727808   22.14890579887197
H        -4.55338367394710    1.28102990941055   21.44833159024312
C        -4.80641043906558    2.82475854619109   22.91113248952844
H        -5.88184807662220    2.85139514341227   22.80997209792141
C        -4.17035363885228    3.68142213017455   23.79383370427623
H        -4.74759151280489    4.38160249249845   24.38105801027986
C        -2.79368192126676    3.63933379041452   23.92954364761476
H        -2.28656266034608    4.30261579830100   24.61855143837583
C         3.56184352343805    1.86620785674520   23.48433239069454
C         3.37690357943281    2.58231630648240   22.31254124123346
H         2.61588659781508    3.35094775584064   22.27821300084048
C         4.15355787358829    2.31442817010326   21.19827846530563
H         3.99812571718067    2.87829595965677   20.28962059580825
C         5.11945464356278    1.32435374363998   21.24965858798093
H         5.72665431888253    1.11225261292097   20.38129996970413
C         5.30643974622411    0.60002219113274   22.41744232117987
H         6.05818388206403   -0.17574752637344   22.45831779945263
C         4.53114011199831    0.86700750945110   23.52967391355094
H         4.67210144347192    0.30105548670992   24.44175486552955
C         3.79066959013347    2.01667808408974   26.21611474668133
C         3.74136101617451    1.08811733868365   27.24798484918830
H         2.91645001364251    0.39345707435876   27.29337875976867
C         4.74691678155367    1.05005524789100   28.19911149277461
H         4.71322998039824    0.31378342223437   28.99132099950293
C         5.80036196659506    1.94771706879467   28.13880299460953
H         6.58093782276500    1.91883326695422   28.88585339351372
C         5.85688042507014    2.87404817563842   27.10928519431642
H         6.67986517866345    3.57187738389535   27.04882671425679
C         4.86218729360936    2.90147344926909   26.14964879758723
H         4.91481344607245    3.60722435347057   25.33348543058992
C        -1.29870982341354    3.88962793284716   27.75783601175052
C        -1.58385406632960    5.20653423801613   27.43458807054581
H        -1.10778863193563    5.65329820194637   26.57146421327752
C        -2.46339897255045    5.94278818487710   28.20987950036960
H        -2.67599380787234    6.96970682284973   27.94910160070009
C        -3.06062880896309    5.36523776980320   29.31696322184084
H        -3.74612009191750    5.93801792907367   29.92503721381043
C        -2.77611397016876    4.04921024728814   29.64923847105749
H        -3.23928247847641    3.59744254370232   30.51527725859098
C        -1.89857376778794    3.31401095146656   28.87542275161571
H        -1.67143447306522    2.28748456762194   29.13381081212606
C        -0.97933037269942    1.34077987239911   26.79150417653122
C        -0.44762220408335    0.16746998698924   27.31111122853752
H         0.53218012185415    0.18761457914988   27.76358858419408
C        -1.17417202587508   -1.00999717250917   27.25702688703124
H        -0.76305647742642   -1.91801964713404   27.67807434363939
C        -2.42890309974425   -1.03060891415851   26.67016056318510
H        -2.99137075515099   -1.95245689060862   26.62499409186571
C        -2.96613407331525    0.13790441372371   26.15323296850097
H        -3.94811615128082    0.13303263539442   25.70201989508439
C        -2.24836227375585    1.31734643786358   26.22183723669026
H        -2.67283866756098    2.23419977815872   25.83940157177114
C         3.61698693490584    6.00223025530506   25.84635031435248
C         4.21414354076206    5.75755750316413   24.61765211261997
H         3.69253295585867    5.14597169782041   23.89265601740172
C         5.45907582715834    6.28789516942471   24.32751824615939
H         5.91768802606996    6.09062758249765   23.36885201861023
C         6.11725849223885    7.06512518014244   25.26575173166458
H         7.09272951799145    7.47312684816001   25.04327981705572
C         5.51786359906750    7.32803770274237   26.48715069181666
H         6.02353370638257    7.94663720438280   27.21530137936629
C         4.26886474915473    6.80858977862804   26.77183137476611
H         3.78422663018896    7.03513968976932   27.71085557656374
C         1.14337661458076    7.02159417795170   26.13441371682290
C         0.67030701111314    7.71890659670163   27.23710034546595
H         0.73968675501993    7.28103393268893   28.22130193353806
C         0.09374031452191    8.96678901549025   27.06967628012928
H        -0.27822226284205    9.50449828917649   27.93081025609169
C        -0.00785995462400    9.52619739626286   25.80798827290260
H        -0.45780345411540   10.50068138917985   25.68262727709106
C         0.46455990223028    8.83160095206224   24.70467975779042
H         0.38282539309110    9.26477428986971   23.71807095379319
C         1.03608180148035    7.58493648353516   24.86758426529493
H         1.39063300788949    7.01820069283029   24.01604792981135

