49
CSD_code = NUSHIS | q = 0 | S = 0 | Stoichiometry = C20H18N4NiO4S2 | MND = 6
Ni       -7.70834937088014    0.07287689995320   15.21617517769812
C        -6.09198983154246   -1.56901868801587   13.25710649550730
C        -7.08583144543648   -1.81565010668011   12.31748934004735
H        -7.95518818449225   -1.17830636889279   12.27140731312973
C        -6.91883707026195   -2.92175762934605   11.51179000564512
H        -7.67078970428886   -3.15963664163603   10.77503618473559
C        -5.80466578114101   -3.75775137924000   11.62938712810393
H        -5.72206296146396   -4.61473263147973   10.97780060488918
C        -4.81582736735174   -3.52886077017800   12.56546741653683
H        -3.96641663032778   -4.18669695186008   12.66605006399145
C        -4.97713797988199   -2.42141179518772   13.38231083700112
N        -5.98569127325799   -0.56395705911903   14.19526353546115
C        -4.88674051720620   -0.80247162217855   14.86864225562196
N        -4.22739878511989   -1.89650220501712   14.41175784692744
H        -3.40557945932700   -2.31185499394090   14.81826016814854
C        -4.41466994376922    0.04614101490432   15.99051532307301
H        -3.90369535161877    0.93695547446938   15.61887507403538
H        -3.75237564371397   -0.50450477412993   16.65971365933161
S        -9.40346984408490    0.73258972817301   16.99583684676527
C        -6.30439650211983   -0.84700763936979   17.81369236424852
H        -5.46362377971792   -1.20906485307040   18.40600748230892
H        -7.12959687086327   -0.57390091778352   18.47330864868289
C        -6.79957814724604   -1.94600043780571   16.82804964462792
O        -7.63669862203748   -1.59111279411525   15.94414040265888
O        -6.37507297454693   -3.07524406736338   16.98780501590045
C        -8.64113808919546    3.24578281966398   12.91315371969029
C        -8.68805025192348    3.87678258982788   11.68055595765627
H        -9.40272355296409    4.65891451758923   11.47798395314579
C        -7.78569627014476    3.45158036694496   10.72768456556188
H        -7.79089708180980    3.91038001657023    9.75084859093487
C        -6.86505969673860    2.43740256475354   10.99966438559665
H        -6.17705128652722    2.13729306210924   10.22393331435841
C        -6.81422935795358    1.80797416581272   12.22525697044256
H        -6.10881155576332    1.02151627701782   12.43036333345346
C        -7.72284765844654    2.21435256073858   13.19659205883831
N        -7.92734041033886    1.79068568050573   14.49415063154381
C        -8.91198144500338    2.52617554774586   14.97335057853471
N        -9.36486358933738    3.42211733982511   14.06638549284394
H       -10.16512019646160    4.02262286761742   14.17804741445304
C        -9.45163456155458    2.44933782446505   16.35200443655663
H       -10.48159465819646    2.80600736037343   16.39174344115979
H        -8.83208531687033    3.03006185121621   17.03999872786974
S        -5.82596637376200    0.68385027479513   16.97092721325376
C       -10.74930334178896    0.01329249602038   16.04762999460088
H       -10.75864723273145   -1.04667144839491   16.30185685259857
H       -11.68766834218202    0.48673459034947   16.33724221976439
C       -10.50611318767481    0.15535848929701   14.49300667907176
O        -9.41149893183154   -0.29122803199478   14.08027964008727
O       -11.39589356909629    0.70145742606420   13.86205099290545

