45
CSD_code = NUSHOY | q = 0 | S = 0 | Stoichiometry = C17H17Cl2N3O4PtS | MND = 5
Pt        1.85627023884705    5.64487670257856    2.06561869843024
Cl       -0.29501432386558    6.43415521228686    1.58065562741511
Cl        3.87342185556231    4.65372399685071    2.62793606539201
S         1.61648700837697    8.61712107499940    5.55916888685142
O         2.82880702227924    7.88323241429143    5.73873725396319
O         1.58220761107095    9.65368985150907    4.57281659028332
O        -0.06624865741874    4.23461639540460    6.66084377562778
O         0.17408194039926    6.00420166795036    8.54531297232418
H         0.04914107345296    5.10811058295233    8.13791966052998
N         0.42591840948991    7.49510679680770    5.20288563233910
N         0.45175982534799    4.92971716068414    4.53805580191534
H         0.74119644729594    5.77226522389897    4.01642721627988
N         1.02634289200507    3.89706067052434    2.58156102905517
C         0.29180900170709    6.54202530968478    6.24432796358328
C         0.32189487947794    6.89228521083701    7.56651644249047
C         0.09170253141263    8.69495919054827    9.26835213228939
H        -0.33209512087418    7.96770803751228    9.94271378826697
C         0.23830804153270   10.01771115228290    9.64345589498852
H        -0.07371988548763   10.32962279253946   10.62866052635871
C         0.77995498660406   10.94647875133948    8.76594859862140
H         0.88427350845590   11.97807148071244    9.06459670638336
C         1.19625818307069   10.54440077139271    7.50549480633439
H         1.62850174141034   11.23502620743547    6.79897902933707
C         1.05677158634146    9.22354697768391    7.13980981086297
C         0.49403731211090    8.28172137150270    7.99716752043896
C        -0.80784727125230    8.02449883069509    4.64667875117907
H        -0.53069944605656    8.87226457996749    4.02546040963727
H        -1.49755206933747    8.35383720929809    5.42978058272645
H        -1.28973102736574    7.27284427663828    4.02261457809864
C         0.19140290135610    5.13182146722961    5.86084215046472
C         0.50143920470135    3.76783304225812    3.81000545078753
C         0.03458308923748    2.53665343545419    4.27309291715564
H        -0.36241996971999    2.46788335323139    5.27197705713203
C         0.11244071907882    1.44235548859584    3.43614279612459
H        -0.23830984773096    0.47920116833355    3.77237912387096
C         0.64442024220496    1.59389758503219    2.16041911121450
H         0.71555381117650    0.76025979778710    1.48185415437280
C         1.09613729768646    2.83981511596767    1.77551485022438
H         1.53353113563677    3.00848979842808    0.79817014529542
C         2.69183083674882    7.63142751127167    2.19315908914017
H         1.90399179347298    8.33319138390464    2.45284046078225
H         3.51823301332684    7.58305657465599    2.89739375189122
C         2.83478383158655    7.17440082287498    0.90323756043014
H         2.15544561145794    7.51222316475922    0.12394142464833
H         3.78609803520593    6.76941038942427    0.56653320445777

