35
CSD_code = NUSMOE | q = -1 | S = 0 | Stoichiometry = C13H10FeN5S6(1-) | MND = 6
Fe       13.17027968568863    6.63397660662445   13.69106975137543
S        14.12187785495502    8.35976902187928   14.53240995512984
C        15.70002010354949    7.80482903620964   14.98361737568759
C        16.04680174471570    6.47734011154584   14.84809379885481
S        14.95948615874485    5.32266498011811   14.19368358661490
C        16.59587319252571    8.76119724755516   15.47304822830303
N        17.31361163198108    9.56561042990460   15.87366919934173
C        17.32045179280552    6.01325181003663   15.21145158869362
N        18.35571508797198    5.60567557011048   15.49821909731620
S        11.38163912183136    7.94896765509895   13.19749872850025
C        10.20971607886212    7.34717460918662   14.29657792732271
C        10.50526143597039    6.34296305076122   15.19382533529708
S        12.09974675277971    5.67016986225094   15.27763777110533
C         8.92377051089965    7.90394575188187   14.21940744975698
N         7.87996270700556    8.37632741633270   14.13310343982116
C         9.54362931642564    5.81351187699555   16.06081789658447
N         8.77115773565712    5.36157092128453   16.78318179110456
S        14.11513092861272    7.16159534628928   11.57825050963747
C        13.30952305486666    5.78620987747112   11.00247030286437
S        12.40328641896579    4.97121508041607   12.18007299618682
N        13.38262032321509    5.38047560829994    9.73328165869121
C        14.16890146953238    6.11632485905286    8.76721675679756
H        14.53355877214387    5.40985645366066    8.01748497937577
H        15.02529499247661    6.55536567331880    9.28594733252339
C        13.35034362297852    7.22414914122065    8.10971728564053
H        12.48167572617156    6.81191820077286    7.60065764163460
H        13.96095162610457    7.75931335202043    7.38771740157620
H        13.01014825202904    7.92490404369540    8.86721178038786
C        12.67994561948205    4.19373856247724    9.29626052561730
H        12.42358679901613    4.32026767782309    8.24155069442198
H        11.75760287640307    4.10851783450402    9.87699352380477
C        13.52551160836110    2.93915220629936    9.49800267178802
H        14.45891049224603    3.00961530001877    8.94352054119703
H        12.97901254311274    2.06359741643445    9.15849821672687
H        13.75549396191730    2.82003740829417   10.55323226044696

