72
CSD_code = NUSNOE | q = 0 | S = 0 | Stoichiometry = C36H28ClO2P2ReS2 | MND = 6
Re       -0.34590138273099    6.90197019167026   11.96233319626185
Cl       -1.05196349732174    5.49228775068227   10.22993741044610
S         0.88338874477781    7.74283611757905   13.82825011954936
S        -1.59027296408439    5.74347037767088   13.63417502662183
P         1.68269428188320    7.23655106435598   10.74694370791084
P         0.49426470592624    3.72977919944961   12.77662012447495
O        -1.25121877027173    8.23678231308765   11.57452531509051
O         1.04493381369329    5.02667594001780   12.25000460592016
C         1.48317168031174    8.67613000485182    9.65403551075632
C         0.28258464884176    8.80175236717795    8.95708049390168
H        -0.50401585334893    8.07250195590009    9.10674278584989
C         0.09027457936278    9.87168665937035    8.10303550087291
H        -0.84180390996352    9.96820452544644    7.56705661100963
C         1.08456939027302   10.82451153331968    7.94771133444813
H         0.92971095407853   11.66480103216512    7.28731457702809
C         2.27149551539207   10.70851719689201    8.65151772570113
H         3.04115309562776   11.45856841308760    8.54289470039835
C         2.47564090154358    9.63742731839734    9.50381332246066
H         3.39702091977862    9.56147547374888   10.06242316241759
C         2.39674666933586    5.95088491614419    9.69563985349546
C         3.32437658674224    5.05383519932403   10.21861681494175
H         3.62573795874303    5.13229473003417   11.25360412878571
C         3.85225521976128    4.06325780578590    9.41233266312721
H         4.57670773779494    3.37181805963057    9.81745811337920
C         3.44795307689666    3.95272828153944    8.09147051038542
H         3.86573697368718    3.17933200970764    7.46371484216056
C         2.50531896938507    4.82864275740908    7.57767041044022
H         2.18031749098686    4.73381294287985    6.55218475667377
C         1.97703499064074    5.82767134308498    8.37450562806969
H         1.23867765061795    6.51013552349981    7.97960817827540
C         2.94104391521302    7.67959995417172   11.95928962520008
C         4.28493703576401    7.79449580487285   11.60854103488956
H         4.59107123305149    7.54937137075913   10.59963625515798
C         5.21765419999365    8.19843567737890   12.54329104332641
H         6.25795616690124    8.28377580531088   12.26817937489577
C         4.80772731875041    8.49285021182305   13.83883837209556
H         5.53375324240484    8.81322751603338   14.57130060713826
C         3.48393206100962    8.36793015865085   14.20106136145857
H         3.16134607435365    8.58230528100374   15.20816488846595
C         2.52619543890865    7.95641238738154   13.26950853090917
C         1.43461442844771    2.40007080095218   11.98376642940276
C         1.36690982992851    2.35253582367852   10.59564220085256
H         0.76378324687990    3.08373531506731   10.07237305135249
C         2.06151463913744    1.37422669713409    9.90961920437442
H         2.00202721302806    1.32633356150344    8.83262505700768
C         2.83152696720246    0.45650271209852   10.60795146644367
H         3.37544127853325   -0.30807487306793   10.07271092462869
C         2.90693776170386    0.51422042165887   11.99020660123599
H         3.51047256579068   -0.20123555368572   12.52955479484966
C         2.20490986113136    1.48542253051530   12.68416138723898
H         2.25057586760334    1.53416141162572   13.76351471800085
C         0.69893070609246    3.61440484829165   14.56918094866013
C         1.57612938908854    4.48762839504245   15.19781703189659
H         2.11092610913176    5.22005112116264   14.60934793098901
C         1.73704890567920    4.42665926111965   16.56977253605436
H         2.40938922294910    5.11237271552000   17.06332402730127
C         1.02819256545356    3.49249255574124   17.30735067315806
H         1.14806324419576    3.44966213544430   18.37984710862276
C         0.15859381909417    2.61563053282896   16.67648155997241
H        -0.39456313899808    1.89134291179248   17.25626970105123
C        -0.00943188592899    2.67299536838692   15.30580760987927
H        -0.69229307477083    2.00227755037474   14.80217133836594
C        -1.24812674306512    3.35205332531016   12.42274399238138
C        -1.67187725774289    2.17465550620051   11.82422636687363
H        -0.94692088483774    1.43603578461881   11.51328337648063
C        -3.02378995284168    1.95314490486690   11.62905591001740
H        -3.35269528458576    1.03742013876000   11.16091958692778
C        -3.95335515394259    2.90155199992514   12.02943020506130
H        -5.00633943805193    2.72463446017172   11.86828885087031
C        -3.54190069911165    4.07658283626510   12.63005455888555
H        -4.25209487765077    4.82599401251764   12.94334324131034
C        -2.18760609422240    4.30376361679963   12.82872538541041

