42
CSD_code = NUSSID | q = 0 | S = 0 | Stoichiometry = C15H16BCl2N7Os | MND = 6
C         2.92414031131970    5.05767318694626   10.31571392248217
H         3.38749338863094    4.95579732013079    9.35316821624133
C         2.39493407003847    6.18794419735028   10.93384795148583
H         2.35983913546803    7.18509562757553   10.54793317752181
C         1.92273461188711    5.73487828232363   12.14893470477960
H         1.43411767475308    6.25989403551883   12.94419779233267
C         0.47918522638160    0.75434621211423   11.29495889450029
H         0.64184781122274    0.08121163016600   10.47544439964054
C        -0.63140394613853    0.89597739247654   12.12174995354741
H        -1.54605238905199    0.34215949605726   12.08505801152229
C        -0.29054558278963    1.90799024000418   12.99770835133996
H        -0.84504391877067    2.34547929195898   13.80312957802751
C         4.90544133282147    1.56040781380626   13.56489429939123
H         5.64528646603051    0.97616084911269   13.05215415408568
C         4.81532471180236    1.89976092624109   14.91264885725802
H         5.49074684542809    1.63243177146575   15.69803398933009
C         3.66114367440546    2.65038319103377   15.00929745137493
H         3.20238627012341    3.11367698665598   15.85883573882278
C         6.05551924695945    3.28501211993197   10.48881253430271
C         7.21561578140640    3.30916238848445    9.68367335315968
H         7.29246227692679    2.60820531550997    8.86429466704611
C         8.23062159912940    4.20578625707902    9.92693583330399
H         9.10687993838208    4.20652610173739    9.29583687018555
C         8.13326537810404    5.10813654806038   10.97787439588315
H         8.93004650832023    5.81084581740870   11.16649362360399
C         7.00395416677092    5.09806662341993   11.78533091165115
H         6.92533245195983    5.79602967867762   12.60592051872911
C         5.98001861486994    4.20698902686387   11.55373872338115
H         5.11254090269399    4.21024603357954   12.19327074300803
B         1.80787545266060    3.42079632056932   13.34466186314179
H         1.25809319949997    3.94662755623710   14.24598714894086
N         2.77610408076620    4.00981483862969   11.11619696490918
N         2.16705250218011    4.42030036907636   12.23251587996388
N         1.41378833808156    1.62372162660525   11.65737479174197
N         0.94375085427815    2.32819518755501   12.69695350177827
N         3.87410754935077    2.08046134657140   12.91149971737669
N         3.11593602495380    2.74454778775069   13.78923202990949
N         5.06641017809950    2.40213595449372   10.22545463887602
H         5.31905526516058    1.80937560437627    9.42492462615320
Os        3.32268104363889    2.03159916999549   10.92533504565067
Cl        3.78159883417997   -0.21442315840395   10.90238090695057
Cl        2.47201411806457    2.04907303485237    8.79469126666874

