62
CSD_code = NUSVIG | q = 0 | S = 0 | Stoichiometry = C29H23N2O3P2ReS2 | MND = 6
Re        4.03770828875724    5.15894946272705    4.78416535757445
N         5.30210622255895    6.44653359797914    3.92438959455609
C         6.05655204169363    6.94786691298180    3.22018710713096
C         6.99852769022770    7.59190029309778    2.35927681455387
H         7.26416789093263    8.56646225176811    2.76872379408286
H         6.55727282250623    7.72280422403266    1.37085589960906
H         7.89567044140595    6.97747189280427    2.27813550798064
C         4.91120559463131    5.30230474649865    6.52250052483189
O         5.44826860885841    5.35714103864405    7.53326940132071
C         2.66014476460607    6.48382496477557    5.16246108711124
O         1.81541578471578    7.24158790664603    5.33070672134233
C         2.92520690504910    3.70048707995266    5.45155595811275
O         2.31980597272550    2.84272703990189    5.90525862153077
N         3.21873504261887    2.01272213902420    3.13764295226065
S         5.84858574610961    3.40995249469214    4.02758314016742
P         4.84102521323110    2.00129180823821    3.02278908523228
C         5.33093365327952    0.39375701925690    3.67649911654797
C         4.51542247295134   -0.24362471091242    4.59987711901692
H         3.57068321187155    0.20768612518212    4.86716352527645
C         4.92441823034938   -1.44166585045449    5.15638644687400
H         4.29356484608424   -1.94620887704002    5.87345381977932
C         6.14515699374502   -1.99087033094054    4.79785386755845
H         6.46298308964874   -2.92668644647967    5.23380181962733
C         6.96515271390031   -1.34194524055775    3.88768676481552
H         7.91951472860787   -1.76971399927261    3.61713130129744
C         6.56288896927044   -0.14343394117660    3.32854203668601
H         7.19321325857466    0.38081439488107    2.62157457658484
C         5.31416087108924    2.03526016914118    1.26531966562462
C         4.97898921825951    0.93980571040284    0.47967289141138
H         4.55297365449095    0.06212629241688    0.94834353289756
C         5.18906619576131    0.98934401540407   -0.88438436060659
H         4.93049946089928    0.14086322693582   -1.50065845942599
C         5.72270594329992    2.13149163632422   -1.46180489693858
H         5.87916268211889    2.16951182199454   -2.52985295388675
C         6.05348238701346    3.22270506363260   -0.67668804750197
H         6.46706133762042    4.11146802061509   -1.13113388648365
C         5.84866103608974    3.17741927180154    0.69084872391720
H         6.09995658274531    4.02156365004901    1.32007083509311
S         3.12175625846457    5.02859941852283    2.34310141431710
P         2.37804539656316    3.17136615406194    2.36641002755348
C         2.16160496371042    2.67335076991621    0.63014899796936
C         2.52380399787419    3.47404405235096   -0.44094733793535
H         2.90694463876715    4.46874085838588   -0.26178838209537
C         2.39290523594927    2.98758456009162   -1.72968342287705
H         2.67743997873700    3.60696450055269   -2.56761350158001
C         1.90109812887980    1.71153670412233   -1.94477918740284
H         1.80331169446126    1.33496170478564   -2.95250648928141
C         1.53230263249929    0.91480056228096   -0.87158202368571
H         1.14622263882070   -0.07967836557895   -1.04206020689356
C         1.66299160489770    1.39409240030856    0.41696281883171
H         1.39052765901674    0.78650727733465    1.26976302167938
C         0.72695241290978    3.10639718436525    3.10361224972979
C         0.31397253768669    1.99502726248074    3.82492567132120
H         0.99244423743076    1.16532946194122    3.95627363015378
C        -0.95139394099557    1.97863723855497    4.38091701211482
H        -1.27729971564849    1.12038973344204    4.95001023092829
C        -1.79743930874474    3.06365607219200    4.21529613312719
H        -2.78287301056002    3.04893596751661    4.65730364400636
C        -1.38324654036966    4.17028908511327    3.49151754427607
H        -2.04244418095251    5.01673162045712    3.36848743387014
C        -0.11920396701418    4.19391346703064    2.93291740989483
H         0.22632607935760    5.05512743487168    2.37600830639503

