63
CSD_code = NUSZUX | q = 0 | S = 0 | Stoichiometry = C22H32Cl2N6Ni | MND = 4
Ni        8.57951302574326    0.08784594602863    4.05800386185977
Cl        7.38487842260429    0.52867130501264    2.29874180065404
N        10.02779581620931   -0.50212041660441    3.02562819719752
N        10.71122088453428    1.20466556621545    1.61853475440449
N        11.02581943950229   -1.01010767588282    0.97360733983108
C        10.30965136080275   -1.69362091896875    3.70373555968824
C        11.65324637898800   -1.98055156387888    3.96636486735815
H        12.40222623177538   -1.31060974318906    3.56708124372950
C        12.02270202876141   -3.05757814702666    4.74285020696747
H        13.06795116411659   -3.24730615679871    4.93657943917993
C        11.04745172199734   -3.87950139957396    5.28105904323750
H        11.31868179954221   -4.71522804601339    5.90814216032066
C         9.71770282380767   -3.62728428046071    5.00328692197911
H         8.95604423279706   -4.28472303862492    5.40154031704287
C         9.31128107362864   -2.54661630182003    4.22162161659843
C        10.56806806007911   -0.12348629757188    1.90527430855001
C        10.53055363603150    2.14112296347554    2.70987997862283
H         9.47211621456565    2.22729583637887    3.00880727134165
H        10.88461109288085    3.11835451728152    2.38525118029732
H        11.11182233888926    1.81590160627520    3.57209455829997
C        10.20713205891806    1.70280377120842    0.35106622238271
H        10.23634643102192    0.92368079837168   -0.40376757692847
H        10.81544996475425    2.54764938892966    0.02539650074341
H         9.16807500930500    2.02605352890105    0.46790507174056
C        12.17341428156514   -0.73119943609334    0.14649914714951
H        11.91502015396583   -0.76810059014256   -0.91596039983987
H        12.94925390265726   -1.48058264807265    0.33540572825617
H        12.56910750251049    0.25237900892519    0.38525627430823
C        10.51386286859827   -2.35549682775790    0.90457536234492
H        11.13799905620921   -3.07037429334986    1.45318847553926
H        10.47589141853470   -2.65708494776586   -0.14427865940092
H         9.50253675212077   -2.38042789119834    1.30629572458788
Cl        9.77408277393649    0.52863647792140    5.81731785054187
N         7.13122055074630   -0.50211457713908    5.09041403779233
N         6.44777977935263    1.20465621970280    6.49752878152060
N         6.13319711175059   -1.01011554998859    7.14245211703400
C         6.84935093327148   -1.69360732396315    4.41229565416875
C         5.50575035400891   -1.98054794912815    4.14968563301510
H         4.75677168211583   -1.31059830071947    4.54895834967833
C         5.13628939642487   -3.05759457965935    3.37322777858366
H         4.09104301028777   -3.24729495500891    3.17945882562230
C         6.11153954618718   -3.87951537226205    2.83501421760361
H         5.84030813410810   -4.71524178314842    2.20793066636779
C         7.44129025442678   -3.62728915824917    3.11277040100796
H         8.20294653929257   -4.28474065384514    2.71453427870945
C         7.84771587881394   -2.54661291070624    3.89441973708338
C         6.59095334153148   -0.12349448390665    6.21078027910112
C         6.62842960416261    2.14111311321606    5.40618310984517
H         7.68686448934983    2.22727193585808    5.10723079644017
H         6.27439235270854    3.11834628898154    5.73082626812241
H         6.04712665602677    1.81589948576688    4.54398663579267
C         6.95189093501202    1.70278132695700    7.76499288389436
H         6.92261931874765    0.92367093314371    8.51983479991902
H         6.34362748062084    2.54767205246202    8.09064694989539
H         7.99097052640620    2.02595520705270    7.64815381236466
C         4.98558883751477   -0.73121134598215    7.96955151832448
H         5.24395784259575   -0.76813708346749    9.03201650496184
H         4.20973144087044   -1.48057222427097    7.78062689499520
H         4.58991268358376    0.25237740841940    7.73081376129046
C         6.64514277848523   -2.35550728399446    7.21148766594272
H         6.02100921633039   -3.07038143805547    6.66286496666751
H         6.68309343759880   -2.65709239371888    8.26034460692917
H         7.65647596631901   -2.38043469847567    6.80978371874262

