53
CSD_code = NUTBEK | q = 0 | S = 0 | Stoichiometry = C16H28Br2N6Ni | MND = 4
Br       14.05036495207488    2.51879722955070    1.05780745597610
Br       10.38937831241247    1.28738466295387    3.10774952116771
Ni       12.48332518950011    1.58357179396028    2.33679957560032
N        13.09790614430208   -0.65102501160855    2.17235695166118
N        11.75555014261198   -1.49103289564866    0.50567249235849
N        12.42389536522669   -2.92056079166160    2.21002765605783
N        13.40740610544708    1.36774480635539    3.99507024729637
N        12.57542339310318    3.20874488212109    5.15295556363176
N        13.03148474619978    1.26207673984000    6.31427256695261
C        14.19270930820213   -0.70721522851737    3.01205672512531
C        15.20794359383910   -1.65459678346066    2.88269106037602
H        15.11400074401832   -2.41900624344027    2.12473585480505
C        16.33676397463899   -1.59306117155088    3.67571113036677
H        17.11258379108563   -2.33569161595522    3.56186574431269
C        16.48571104053178   -0.57166134998046    4.60012940816126
H        17.37340328907380   -0.51668061707329    5.21201784078976
C        15.51024405058280    0.40018651796539    4.71899771405391
H        15.64330031328804    1.22724246072109    5.40247172244197
C        14.35687300746246    0.34430534623741    3.94272549512816
C        12.46641617575452   -1.66420941176701    1.66624537438709
C        12.00733714106322   -0.27388604626467   -0.23319623699730
H        11.59824239063803    0.61567657715262    0.27961171681874
H        11.53149186958957   -0.34941713189996   -1.20960846722007
H        13.08035321678768   -0.14082827068567   -0.36456943014738
C        10.37118863984920   -1.92125575344515    0.44797733683173
H        10.17800434917304   -2.69266652143812    1.18666140374941
H        10.14610709311929   -2.30847101931995   -0.54736458233994
H         9.70369657229341   -1.07857385928456    0.65760613072471
C        12.33685520307393   -4.10682303290304    1.39428775068444
H        12.32726052275317   -3.83371135826411    0.34270806461215
H        11.43814837233471   -4.68711514341774    1.62577515514604
H        13.20843462094890   -4.74211973479023    1.58540075982823
C        12.63188872247456   -3.15670040450239    3.61350775625084
H        13.64419869995216   -3.51591018937178    3.83235252949868
H        11.91257087144134   -3.90593399219820    3.95435318108079
H        12.46296414036760   -2.23768828633029    4.16868286880214
C        13.01771436700038    1.92404378643266    5.11658149407790
C        12.80947006860309    4.07101850644639    4.01581589120878
H        13.84751758450244    3.98348956024231    3.69376602987837
H        12.61642965142943    5.09944092782387    4.31603385698876
H        12.14390385082129    3.83125876081126    3.16222317193201
C        11.41208359190225    3.56447561801183    5.94032895618850
H        11.14153062091093    2.75062999602719    6.60554247658472
H        10.56345467673903    3.75252386235302    5.27690816684291
H        11.61299479115618    4.46457084320065    6.52439079078323
C        13.47066989613774    1.90181043330197    7.53129288113705
H        14.37619496625298    1.40788179463071    7.89933212835399
H        12.70399024883594    1.83354892987555    8.30762030734616
H        13.69487185889271    2.94780477472491    7.34147298473266
C        12.88247062087405   -0.16794066899721    6.38128399309395
H        12.31816228224637   -0.50630040633571    5.51486269293549
H        12.31369758057459   -0.41261428329205    7.28045706472022
H        13.84331727789073   -0.69423158730097    6.41524107523092

