59
CSD_code = NUTBIO | q = 0 | S = 0 | Stoichiometry = C20H30Br2N6Ni | MND = 4
Br        1.94731811241793    7.69132461409609    4.13125110937449
Br        0.32965771349741    9.25621880141819    0.33886736429513
Ni        1.64643747958157    8.74888641145705    2.16366651102623
N         2.17960788945548   10.47746834558980    2.60022344723226
N         0.03959349310531   11.40720460800891    2.82664471725181
N         1.76519141694339   12.71211818681826    2.02045004327695
N         3.61167899845501    8.56025315978199    1.03026390686075
N         4.21366553337358    8.55763683089671   -1.26120918809140
N         2.84108102879404    6.90916680388581   -0.38164275576440
C         3.46925545894517   10.71804050639104    3.09111421993093
C         3.52612013964992   11.58482796074609    4.17450548081112
H         2.59821760387973   11.95647300871890    4.58792219753876
C         4.73301809518043   11.98881676338703    4.73594189023726
H         4.72825885680882   12.67559251721536    5.56936410862781
C         5.90328272262617   11.50430069833688    4.22677231049452
H         6.85330310216946   11.80484149301674    4.64320185029130
C         5.89946189647723   10.57187252305322    3.16926156597326
C         7.13205947281094   10.06252394313171    2.71538752191304
H         8.04008685183292   10.41997929593119    3.17735926623107
C         7.17061252238877    9.10918701936977    1.73758165692514
H         8.11159570735700    8.69382054805790    1.40621429959830
C         5.98566294385527    8.65211979352325    1.17385040270649
H         6.02201045330530    7.85252741245968    0.44691162900352
C         4.74390531954929    9.15067257212489    1.55054761038196
C         4.67238562595842   10.14158029059868    2.58107310537668
C         1.34488264083273   11.49856870203617    2.49220377671225
C        -0.99714418784940   12.04585736628222    2.04437594792536
H        -0.55501339598809   12.63772804913933    1.24890439494860
H        -1.61958122873539   12.68199311829686    2.67735074570427
H        -1.62431813751773   11.27912415884986    1.58369907887633
C        -0.42072740031308   10.34041435665525    3.68999462313862
H         0.30299664158854   10.16889861924216    4.48746659622390
H        -0.58519583928956    9.39594105537212    3.14413290794523
H        -1.36845539929702   10.64411886481399    4.13246623437102
C         1.32861268076321   13.95112091129264    2.62153734122430
H         0.55872989856415   13.76059965036042    3.36329645505684
H         0.93595566460721   14.63068385556034    1.86168789513000
H         2.17773949593944   14.43605845681290    3.11490448157064
C         2.94944234279428   12.82140424125935    1.20840913011315
H         3.84730713543753   13.03977732551043    1.79718909401753
H         2.79726201347081   13.62434719266960    0.48493202106121
H         3.09833983778086   11.88903467443936    0.66955211577555
C         3.57718804621416    8.03142613773977   -0.16833548318400
C         4.62420218626125    9.93578616423460   -1.29345863775519
H         4.00143971391053   10.51372397983328   -0.61513713107875
H         4.48407234577048   10.31794431770226   -2.30696248831354
H         5.67421817361460   10.06749211536233   -1.00495278036058
C         4.80351806065290    7.72829305322593   -2.28472281691482
H         4.62560241049558    6.67863833636643   -2.06910543132373
H         5.88537991790575    7.90019956729837   -2.31190601389594
H         4.39605976966836    7.96847838963187   -3.27077322291704
C         2.03089978266672    6.73186291055920   -1.56882302520540
H         2.19135635876011    7.55261374335058   -2.26108647347827
H         0.97277806102743    6.73117731508931   -1.29623100745168
H         2.26832444622588    5.78364350914754   -2.05774268794245
C         2.38862689568984    6.16967210228684    0.77334169994568
H         3.19497819506491    6.09008964653909    1.50256556431934
H         2.08726257794908    5.17113310565389    0.45947358289996
H         1.51699185692785    6.64630089935408    1.25902924135241

