125
CSD_code = NUTDIP | q = 0 | S = 0 | Stoichiometry = C62H56Cl2N2P2Ru | MND = 6
Ru       11.62352360930965   12.18999280805660   -9.00371171584441
Cl       10.96121003338707   13.25339160676115  -11.04885604320909
Cl       11.69196835575761   11.44678783732936   -6.72496477714499
P        12.12460094184949   10.16179752656951   -9.93373978395455
P        13.82163183731166   12.80772303756038   -9.10867779037265
N         9.51638947783088   11.74190440701199   -8.72474121112057
N        10.93479149041732   14.09005667783066   -8.20714655201177
C         8.77800747641968   12.99093817699679   -8.52189224410891
C         9.61746519786736   13.90400180921512   -7.59458983211513
C         7.40511080750963   12.78840866790873   -7.92561946977356
C         7.24091613277488   12.04080591881918   -6.76536896942218
C         5.98765015208838   11.89367463983308   -6.19959084946499
C         4.88619963194472   12.49573290705412   -6.78328401348449
C         5.04284067038786   13.24413151530695   -7.93697373229176
C         6.29582936034084   13.38856541742307   -8.50502493660149
C         8.87651217590425   15.19725818937158   -7.34992882015158
C         8.30320362106878   15.44860467330904   -6.11097987338196
C         7.58379627460804   16.60969092461780   -5.89288936003184
C         7.43218919228454   17.53363460290928   -6.91227009392643
C         8.00127000652186   17.29050942742675   -8.15058688665022
C         8.71700274547001   16.12764213246594   -8.37007443917384
C        13.34663639261152   10.36421757746400  -11.27964416363508
C        12.94528162683287   10.43289586963066  -12.62688316323651
C        13.85529993956723   10.64588230759611  -13.61987626021219
C        15.22532354484560   10.79057550607297  -13.32338000863893
C        16.18277324505754   10.98578389629308  -14.33940573467963
C        17.51021408888765   11.10104644707613  -14.03912922700432
C        17.93253158094928   11.03924738010554  -12.70355238539894
C        17.02711059173918   10.86233518954495  -11.69577793882469
C        15.64941732432563   10.71833218917065  -11.97153004779891
C        14.68382105378980   10.51758553423388  -10.94511519447351
C        14.88900551939657   11.40738974413025   -8.61407752858122
C        15.38070663075403   11.29371360020810   -7.30020059486898
C        16.11468252181977   10.21011995899445   -6.91737638921523
C        16.41176344957939    9.18067158106232   -7.83272504239716
C        17.18773351748358    8.06436393551269   -7.46009333231768
C        17.48820864384204    7.08590972414341   -8.36439366166415
C        17.01195867147962    7.18000397675832   -9.67970833302433
C        16.24722186743073    8.24362967775585  -10.06778548091354
C        15.93276182966898    9.28262224669347   -9.16424900105175
C        15.14806683866867   10.40892847857819   -9.54112149486874
C        12.86323451477884    8.68932569595601   -9.14058260280594
C        13.21537293300742    7.62209840507962   -9.96502618954200
C        13.75715737921212    6.47300255937025   -9.42693950657595
C        13.97260638666620    6.36131033203884   -8.05828705670560
C        13.61895047452767    7.42833542136692   -7.24272613057912
C        13.06368538285672    8.57825415080739   -7.77192546010431
C        14.57522239378297    5.12440194239704   -7.46671046898081
C        10.64161489826944    9.39333173105867  -10.68823746356372
C        10.17121303278481    8.14257296713263  -10.29664356405402
C         8.99031732097023    7.64004392683971  -10.81421517932310
C         8.23546068560934    8.36776696340451  -11.72371077751843
C         8.68427848363280    9.63435985790887  -12.08422644365892
C         9.85838233161761   10.14601681336011  -11.56776578614730
C         6.96688239478807    7.82010329158834  -12.30119036670452
C        14.78249285370414   13.36852409486023  -10.55879074919068
C        14.20622502888665   13.65860881684197  -11.78741765762634
C        14.99327767280604   14.09029820602766  -12.83855418562215
C        16.36378956175192   14.25631776845135  -12.68738142412160
C        16.93349269459284   13.97637284333513  -11.45062926392858
C        16.15731764272720   13.53321296430937  -10.39960919780233
C        17.20279489276046   14.71570414616655  -13.83977302015499
C        14.18237171392506   14.17847048339825   -7.94711206156400
C        13.76983173586156   14.06923140581388   -6.61732347169438
C        13.93580245462903   15.12051528441578   -5.73479438707809
C        14.49225619914994   16.32279994792330   -6.15273048576411
C        14.86089011141159   16.44588107682716   -7.48740278130963
C        14.70517628792799   15.39758422754244   -8.37468438810888
C        14.65929911421043   17.47240294525424   -5.20739005717319
H         9.49023486450378   11.17774258233398   -7.86803111927265
H         9.08149674384962   11.19883557501481   -9.47344551374884
H        10.85525099591289   14.69537218508747   -9.03201430660543
H        11.56555237757036   14.54348963896954   -7.54286376552577
H         8.68853299572741   13.48154126840667   -9.50063483750152
H         9.77113413240568   13.38015995313637   -6.64141195400848
H         8.09335497662846   11.57593686487439   -6.28900788147235
H         5.87196934075753   11.31102583195688   -5.29762230528836
H         3.90864516047815   12.38308735731933   -6.33866289921076
H         4.18768396285179   13.71775531824895   -8.39571581606906
H         6.41689565132754   13.97664023141962   -9.40335466386692
H         8.41757335912812   14.72677638838547   -5.31518059876309
H         7.14036039256124   16.79264976784086   -4.92542649966597
H         6.87052173087310   18.44024296480011   -6.74319925884608
H         7.88383768837237   18.00652539392548   -8.95059611609067
H         9.14274138046782   15.94624293029968   -9.34758829707331
H        11.90260969733707   10.30155861459767  -12.87113896826624
H        13.53708814943982   10.69588218114462  -14.65164742223662
H        15.84185674056886   11.03884781407936  -15.36404133748732
H        18.24073266235746   11.24113762307607  -14.82307248286480
H        18.98348115228379   11.13922976923693  -12.47466873682113
H        17.36410334833593   10.82590002144648  -10.67113661193401
H        15.18015042114749   12.08473653168507   -6.59446570226916
H        16.48753512207751   10.13204636316751   -5.90585029769447
H        17.54291023062314    8.00211446735407   -6.44083841243025
H        18.09018391684806    6.23646005517625   -8.07502711202825
H        17.24907525418990    6.39836273469984  -10.38660397398270
H        15.87857085339989    8.29910621439507  -11.08060814431111
H        13.05580728374776    7.69830236695268  -11.03329473871972
H        14.02178833588392    5.65152433175704  -10.07832280517975
H        13.77957142703840    7.35741532895751   -6.17628476347129
H        12.79270940095694    9.39396934920578   -7.12071066815321
H        14.77045003676945    4.37955793165758   -8.23411480925002
H        13.90710556591448    4.69331731036547   -6.72198831060830
H        15.51423943330830    5.36803858062090   -6.97151107075334
H        10.72465306138673    7.55271566319609   -9.58133839435558
H         8.65027906199512    6.66309132934217  -10.49972584368358
H         8.10061121368341   10.23015214240222  -12.77224635374788
H        10.16069837221010   11.15065083444308  -11.83109554944605
H         7.09500619274167    7.62175762863894  -13.36532038842902
H         6.15559250250337    8.53864580502595  -12.19370781725052
H         6.68242487005212    6.89291457918343  -11.80995552307799
H        13.14285822256177   13.54080303647392  -11.92337864427692
H        14.53449322393708   14.30454263295219  -13.79340546603632
H        17.99823011793041   14.10384411711297  -11.31197834745355
H        16.61289158003381   13.31609489833420   -9.44158332375533
H        18.21725850668622   14.94033362686182  -13.51971554286231
H        16.77226299693380   15.60479754376811  -14.29780446573610
H        17.24542781252912   13.93538088683088  -14.59921374513225
H        13.29493679745403   13.15969570419045   -6.27444875442391
H        13.61987135581720   15.00537590713268   -4.70718756826774
H        15.27521982569304   17.38056693910885   -7.83903488710341
H        14.99209347059231   15.53389013786646   -9.40663398473762
H        15.62832054257936   17.94745252157763   -5.34776866562346
H        14.57342490043535   17.14336575365725   -4.17474766595904
H        13.89046594014483   18.22354047626173   -5.39221036239004

