48
CSD_code = NUTFAJ | q = 0 | S = 0 | Stoichiometry = C16H22Cl2N3O4V | MND = 6
V        -1.35445534826086    4.33774328994735    2.99089360582934
Cl        0.39078463894379    3.25957188102139    2.19203440801255
Cl       -2.40220106812173    5.38861373426074    4.64394061653498
O        -1.47977207061944    5.38876831493963    1.89749257290553
O        -2.52710939294547    3.25728522023566    2.70998261175773
O        -0.74570055085836   -0.87782452059506    4.52618203173822
O        -1.20491860442038    0.66129759797617    2.95115160192572
N         0.26412705151188    5.45434910816496    3.87127849608922
N        -0.65812485381804    3.14216672444584    4.88654469857731
N        -0.94977640202888    2.06381788473452    5.58530677902503
C         0.68030653060896    6.59357028455644    3.33971226767815
H         0.15872497039416    6.91440069175830    2.44477322457479
C         1.71444923361327    7.34078664834940    3.88040007598732
H         2.01686672989879    8.26368913298578    3.41210567764848
C         2.34328759454934    6.87695457325464    5.02617655699645
H         3.15331287983384    7.43151715717057    5.47606222267141
C         1.91163507391025    5.68894446144114    5.58347897506258
H         2.37191093982421    5.29235336784456    6.47406869003965
C         0.86134395365960    4.99856050184842    4.97698130038533
C         0.34689562356167    3.75165327547773    5.50861754867020
C         0.71451038239913    3.00976511518158    6.64950717066486
H         1.48201258819264    3.23010189850102    7.36166347442063
C        -0.13806736483698    1.93304119155937    6.65404638070760
H        -0.22133371306238    1.10486599963189    7.32839409489372
C        -1.94350181212990    1.13567389668186    5.12508809135110
H        -2.71040006393987    1.69590866216419    4.58394179892876
H        -2.36304515811505    0.58900068311035    5.97129186229209
C        -1.23821189038325    0.15788335115078    4.16622776252183
C        -0.45166197421711   -0.03979327518349    1.95148668830243
H         0.38403067339035   -0.54993535065286    2.43990509844840
H        -0.07313669928706    0.74463945545815    1.29290549597099
C        -1.32365375331444   -1.04258147458663    1.21157989643383
H        -0.73445758980099   -1.52986410817488    0.44046004865239
H        -2.17054511713925   -0.54561627947955    0.74386017241631
H        -1.69339387650383   -1.79981035443121    1.89994711182865
C        -3.57285240433758    3.01922162191078    1.84376134644577
C        -4.35704491663406    1.76488971630668    2.26398027817436
H        -4.80897569927106    1.91554835219432    3.24333119358990
H        -3.69149503840233    0.90558978924082    2.30657628132927
H        -5.14712826003578    1.56446855678782    1.54547983605762
C        -2.97058173179041    2.84073835061177    0.43955112385695
H        -2.36556983891508    3.72030663762290    0.20926633869993
H        -3.75562183782385    2.72823971374442   -0.30330354751756
H        -2.32487239271443    1.96462320166506    0.42834149580575
C        -4.48771066908498    4.25658493907202    1.86988205922158
H        -4.88950824405327    4.39494190820580    2.87326934570929
H        -5.30463057784410    4.14185657742014    1.16271582895203
H        -3.89443994957858    5.13589189447086    1.61155930973263

