42
CSD_code = NUTHOA | q = 0 | S = 0 | Stoichiometry = C15H17CoN4O5 | MND = 6
Co        2.88319892873543    2.86181688763880    6.70332934043585
N         1.80051752672617    3.61577274632179    5.20682142047731
N         4.44929666674801    3.25651742966018    5.52122490960937
N         3.18873710328236    0.99823523753842    5.71454156315598
N         2.88059842117946    4.42769314973758    7.46061770817776
O         3.96981564097783    4.97104858749298    7.51013181465057
O         1.83983303658704    4.92654435629348    7.80709029669777
O         3.81879806270091    2.11877630522129    8.07215781525505
O         1.71643613150294    2.11378026874561    7.90313268135787
O         2.65177584944041    0.77478929712137    9.45242965464884
C        -0.36531972939819    3.64732137981016    6.36462412154255
C         0.49909676653090    3.94265708952987    5.19509704609818
C        -0.07086761273846    4.58262283932077    4.09214061363367
C         0.69796005513776    4.90465308426533    2.99493233826955
C         2.04067082255755    4.56140841109085    3.01843206722333
C         2.54819781642910    3.92071757995219    4.13488621589047
C         3.99133591213605    3.49016732397649    4.15425057642906
C         5.33060344268874    2.09818311205443    5.64513950071820
C         4.50754129847943    0.83930578007827    5.58106438216090
C         5.09828399772362   -0.40331453860510    5.42206281865625
C         4.28648595034764   -1.52582585975757    5.42378930060186
C         2.92054077978285   -1.35582230866484    5.54093968039638
C         2.39349566822244   -0.07366215377355    5.67659325178762
C         0.92464363376336    0.14220012495518    5.78133253615015
C         2.72371247200980    1.59927609202467    8.57881889771732
H         0.05404041172540    2.86362038167424    6.98405016663698
H        -1.37005538673788    3.38788237832745    6.04108856199940
H        -0.42065068281081    4.53835702740432    6.98929970875885
H         4.93203744649742    4.08168877584657    5.88123673719389
H        -1.12029697745635    4.82903234160312    4.12067796936770
H         0.27156290598153    5.40939001091570    2.14188877404614
H         2.68924351766592    4.78605207833885    2.18664704063738
H         4.05794145309029    2.55032418503721    3.59304790635980
H         4.60914370201709    4.23327433234622    3.63585834743677
H         5.80001160559180    2.13501523777218    6.63253221463443
H         6.11581044969676    2.09208519520356    4.87641913198058
H         6.16902704188754   -0.48433014863503    5.32187213239565
H         4.71390187673871   -2.51260387254955    5.33066230494046
H         2.25695421482457   -2.20577332931983    5.53824016628402
H         0.69159207790186    0.44891124514480    6.80148977371029
H         0.37842225735067   -0.76660312742675    5.54654126383321
H         0.61112544448272    0.94631506628867    5.11886724804260

