38
CSD_code = NUTHUG | q = 0 | S = 0 | Stoichiometry = C12H13CoN6O6 | MND = 6
Co        7.05239876549628    1.85985837550586    1.13083167399486
N         6.51165204502858    3.20580932995837    2.63277223145511
N         7.32161366078551    3.72211662655018    0.15653526891799
N         7.63668991472933    1.22432871641691   -0.73312140543657
N         8.77234250188262    1.93272539637631    1.78816770609645
N         6.83144841073178    0.30185619263159    1.94267437592453
N         5.32238504753305    1.80359470950698    0.45595201181632
O         8.87806189653807    1.72804272829977    2.99153157930609
O         9.71936388170566    2.24578998723738    1.07679390895082
O         7.56558151500792   -0.57964450554768    1.58064902310814
O         5.97912410498692    0.24466747706367    2.78665122643643
O         4.86118560475567    0.70379448118172    0.18402512961133
O         4.73211910675483    2.85583415162543    0.19739079072174
C         5.85191515645740    2.93810263159691    3.75269005185181
C         5.57075139679216    3.89783526863084    4.70968556016285
C         5.99605839671650    5.19721032133480    4.49481196049032
C         6.67665570491763    5.47938417713187    3.32332373386428
C         6.91818162896425    4.46151330955949    2.41204599813869
C         7.67632121072472    4.73471198112459    1.13868727520050
C         8.21522329206886    3.57884257346584   -0.98332736773529
C         8.08871794599506    2.18739207562762   -1.54493153612872
C         8.45605041965538    1.92176383117434   -2.85689376605093
C         8.34581857429376    0.63347283903398   -3.34864437172547
C         7.85945832062323   -0.35187801465850   -2.50614660937067
C         7.51707269690905   -0.01048762369707   -1.20992486481944
H         5.53845562310338    1.91343278939508    3.89105258953113
H         5.03218641080433    3.62332193437038    5.60164075700204
H         5.80163816232970    5.97456229538361    5.21774671434490
H         7.02438436735429    6.47828185172280    3.11008351768489
H         7.47093426357388    5.75587830217467    0.78852750653690
H         8.74996354321204    4.66300719733647    1.35228869021913
H         9.24823551246075    3.69102557792713   -0.63449746752406
H         8.02836123810207    4.32518737815096   -1.76642511363663
H         8.82195369903779    2.72399371084015   -3.47864458035510
H         8.62642891684905    0.40759503825712   -4.36596604376212
H         7.74347295942413   -1.36964383897992   -2.84013264953532
H         7.13881968179999   -0.76167879473696   -0.53299314285103
H         6.36877442189412    3.91729952102655   -0.16931036243616

