93
CSD_code = NUTKOD | q = 0 | S = 0 | Stoichiometry = C44H34Br2N6NiO4S2 | MND = 6
Ni       14.31563974000027    2.03131611294662   15.53430275011405
Br       17.53808683846461    5.52964352860694   20.84201325584381
Br       14.26062751777543   -3.42526641993977   11.91624630816051
S        10.95558951752094    4.62990413264595   16.55318740461090
S        17.82593200159793    0.35395852437012   13.60303711422327
O        14.56833475869418    2.29082670469047   17.49738908554156
O        13.68574857480593    0.03852607371373   15.27374442481610
N        14.32237960667152    1.95703151649767   13.40030140268936
O        12.09828326429071    1.85771342991379    9.99367540549610
O        14.46867196066788    7.31894141245058   15.98409304092869
N        12.55973344438678    2.57236721548101   15.78939740075584
N        14.64585102429463    4.23869669360778   15.43878524666400
N        16.06125580418140    1.48599219278011   15.33404922277127
C        16.30938860735138    1.12118227042665   14.04032063097758
N        13.47730446557069    4.71901919762534   15.93104736818035
C        12.50445132629667   -0.39583041278553   15.37379066016712
C        15.17415010616650    6.87890893400678   17.05137797872199
N        15.45275689778382    1.28997320490514   13.09515978714365
C        13.65516035798130   -0.66004065323658   12.17000894090922
C        12.56776470918861    0.69340296814220   10.49761628729457
C        10.07172346767970   -0.13162352763513   15.69966179712677
C        16.97537091373414    4.46360977046889   15.11012216701880
C        12.12768944783016    2.64481316024125   12.82029688576518
C        16.68499001797848    2.11387878595499   20.36785268565013
C        15.75892335875969    4.75109613015399   15.87064033498450
C        12.48142639267808    3.91179136174539   16.04170986681111
C        16.58248837889236    6.09273239447180   19.29404318418744
C        13.14710896210917    0.57673158357130   11.77340064055739
C        13.56899871237736   -1.74926420423815   11.33095234724615
C        16.99993594965779    1.39707589853504   16.24532128683206
C        12.99143226060081   -1.64585062430564   10.07508901724681
C         9.87802355812238   -1.46484914674581   15.50310769569873
C        15.27617333705098    7.72288747273343   18.15458936968255
C        17.92284524693611    1.76298338059208   19.79416752997937
C        15.82139948540160    5.63349556455625   17.06406491891390
C        13.26245436423634    1.72576161613491   12.68269941429409
C        15.57114148906319    2.26195901784670   19.59784697315954
C        18.25571582767631    4.55860359010162   15.65601731697639
C        15.61054754705668    2.07816769121544   18.18216781758050
C        16.51466801206311    5.24618998504826   18.20452817830324
C        12.34453044878322    4.01731307912235   12.96456308709969
C        10.98551301912939   -2.29994859528727   15.25585315861619
C        11.48362065456664    1.82393183715445   15.87050277815985
C        11.36387129858949    0.44951576648461   15.63948130330450
C        16.87398120159386    1.67968997642676   17.60984398957813
C        15.98140970140625    7.33950333807588   19.27656742974493
C        18.00676673513927    1.54611268228040   18.45182452152251
C        16.85253170691074    4.10981469310359   13.76174872276435
C        11.47291070687344    6.33890371642474   16.84777185141751
C        19.36786779729841    4.25634480133139   14.89211327992572
C         9.97945580471204    4.38538174247112   13.12740343351318
C        12.49830497077486   -0.42404851391019    9.66796884136091
C        10.81874820461248    2.15695512527705   12.82891542581826
C        12.24659661548621   -1.79220493646470   15.20369398188273
C        11.27474241677623    4.87879408577927   13.10943850741101
C        17.96674424483855    3.82225428949592   13.00153865947001
C        19.23091249525032    3.87998752552590   13.56699572133858
C         9.75556575364989    3.02497546206656   12.98913859293079
C        17.51983243633134    0.03904452443413   11.84747220867393
H        12.30413370846060    6.34289023491671   17.54487649441486
H        11.75923531795575    6.80409358524373   15.91096207602889
H        10.61151932036534    6.84187500146998   17.27561609051497
H        16.66489875564196   -0.62104431695962   11.74983236808053
H        17.33004022580666    0.97960884221808   11.34267948801725
H        18.41729402767875   -0.43511923658112   11.46355551345801
H        12.05107588664134   -0.30497265790604    8.69419876589462
H        12.93046130744464   -2.50595702549068    9.42699810076342
H        14.08839671722411   -0.76030014684098   13.15259052335740
H        10.64648538042563    1.09435194763690   12.73355030011547
H         8.74829648053396    2.63782884183727   13.00911232803386
H         9.14663600193074    5.05979423948466   13.25383168624490
H        11.44979142188401    5.93972136636909   13.21083085172908
H        13.35710906096995    4.39183696250703   12.95418455442261
H        14.78593430737916    8.68238536596106   18.11032212635565
H        16.05406990595911    7.99450859531846   20.13049697356391
H        16.97733376342212    4.27341201713067   18.25211611889183
H        18.94584411169762    1.26550783466081   17.99604706254132
H        18.79247642476025    1.66753535194483   20.42472432424228
H        16.62800346365779    2.27643273217404   21.43400781239870
H        14.62106806122020    2.54215245967338   20.02734119294512
H        17.85076111343346    3.55588844901893   11.96104372420760
H        15.86828703798246    4.06766694414530   13.32110090489835
H        20.10257407595162    3.64344081543661   12.97595458832174
H        20.35009896431452    4.31984284860118   15.33624876194638
H        18.39128411502425    4.86434525406947   16.68071459222561
H        12.14843570055698    2.56170569111415   10.65603351945329
H        14.20709648276982    6.55672238263008   15.44497559237122
H         9.23303411687744    0.52138082938121   15.89814621897305
H         8.88691133292304   -1.88981013547745   15.54173281278795
H        10.82567734249371   -3.35833304015629   15.10755000726319
H        13.09852475918277   -2.43068500854483   15.02166945953924
H        10.55805551697341    2.33457101956323   16.14551407575178
H        17.98328232413902    1.06374482836150   15.90948235167957

