123
CSD_code = NUTMUL | q = 0 | S = 0 | Stoichiometry = C63H51ClN3P4Rh | MND = 5
Rh        1.73931908654119    4.30481947056194    3.60686962072568
Cl        0.75831115350206    4.65015354667437    1.52539857732560
P        -0.20712906207605    4.56680621896110    4.77805093218251
P         3.17924532075439    6.07152803013371    3.43201542643540
P         2.47718457911653    2.19787281952588    3.11957827906302
P         2.65828400049722    3.98049558837999    5.55849148494313
C         1.37673946967476    3.59891497436234    6.77236860879950
C         1.28629079858181    2.90087194699968    7.94973527922066
C        -0.08324457855305    2.96955679677912    8.35623830125203
C        -0.76932846591924    2.46705930277783    9.46250158810458
H        -0.24435663622985    1.91296840679064   10.22608554653796
C        -2.12219329505198    2.69920225535875    9.55461281430805
H        -2.67519139467808    2.32046353042391   10.40143652315537
C        -2.80104401596801    3.42087154612746    8.56874869796532
H        -3.86357102283650    3.58219633152830    8.67291328602331
C        -2.14585707687769    3.93113495417969    7.46919150476012
H        -2.67444012690007    4.49013942741239    6.71226938271102
C        -0.77889586812947    3.70099596332901    7.36734631513717
C         2.34888651294141    2.15713884072182    8.67965872527034
H         3.28071745658680    2.18200323563227    8.12469883982647
H         2.04319114661456    1.11848425871039    8.80813751571585
H         2.50785883564988    2.57875379801358    9.67301892738860
C        -0.96870957770842    6.20657228107411    4.96277782490703
C        -1.26526035334655    6.85804221847277    3.76541753654300
H        -1.03941566001834    6.36371258161977    2.82800285390610
C        -1.80742699195635    8.12763538618351    3.78254134076686
H        -2.04272423873375    8.62692958217879    2.85408055352576
C        -2.03342030840767    8.76531559319628    4.99311865696004
H        -2.45822924290101    9.75866793848519    5.00916655090060
C        -1.69483035333931    8.13934413569456    6.18130807127516
H        -1.84887837251079    8.64726345093850    7.12301659820646
C        -1.15785249647842    6.86363483634688    6.17243540483211
H        -0.88623042371874    6.38561429883016    7.10315020360636
C        -1.63993617073201    3.48991449133466    4.43180201067313
C        -1.48491885777890    2.13720616287834    4.72637168344805
H        -0.56330295556225    1.78860412310345    5.17781184207300
C        -2.49593686476995    1.24245649940473    4.44241074656253
H        -2.37413200372469    0.19801343727207    4.68921253650076
C        -3.65843006071054    1.68484396114499    3.83085416480883
H        -4.44776695434290    0.98446357894663    3.60035942835551
C        -3.80398991234191    3.02349025983344    3.50903297934088
H        -4.70600544277980    3.36777745429746    3.02388385365066
C        -2.80061847192733    3.92835465942448    3.80794062666065
H        -2.92327148656530    4.97372965007260    3.56301732769176
C         3.54018472298981    5.47260013674081    6.06530420793286
C         3.90683322726406    6.06771611903301    7.24557403392443
C         4.55092454047364    7.29584901148561    6.89602943764935
C         5.13721007632050    8.30809772880507    7.65676989831592
H         5.17164221426924    8.23278659268543    8.73325375646906
C         5.66959915001533    9.39441880430270    7.00176361787686
H         6.12863602291468   10.19081999745590    7.56867737194547
C         5.62943748262482    9.48969633349553    5.60786258750085
H         6.05538448485088   10.35791323392609    5.12764241685515
C         5.06030646933260    8.50189348857016    4.83393912846429
H         5.03453161965093    8.57918032016244    3.75774375678727
C         4.51915530684337    7.40073957714694    5.48709733028290
C         3.66645076120868    5.60382524527137    8.63912623881759
H         3.10116425021421    4.67789759387237    8.63964923266238
H         3.10153364991797    6.36133313480751    9.18312045738045
H         4.60880125454683    5.45314328041996    9.16729160464690
C         4.60175055207028    6.00366639600633    2.30266198580644
C         4.28359014556395    5.75661138597895    0.96706004782192
H         3.24385582273225    5.63200046317265    0.68862146740880
C         5.28641942399536    5.64037529834286    0.02528639684819
H         5.03686939797732    5.45616784203441   -1.00936230961634
C         6.61359939231423    5.74451596348210    0.41385901562733
H         7.40023349149306    5.65441453685594   -0.32137941101289
C         6.93311227211027    5.94221955070055    1.74692611377172
H         7.96858474430710    5.99913614334458    2.05201016301911
C         5.93301923503040    6.06713939317144    2.69569579153328
H         6.19045868479136    6.21064718479436    3.73570526646087
C         2.53481031770956    7.75977601018691    3.17348208945800
C         1.78319699957690    8.30333727659658    4.21282122084034
H         1.64845230695059    7.74023873866282    5.12901934446300
C         1.20838354172941    9.55027358878636    4.07825299148122
H         0.64107796981540    9.97140185147923    4.89520257535431
C         1.35061165836952   10.25215516750306    2.89157053561179
H         0.89417023695160   11.22489381091481    2.78131538935661
C         2.07173509186874    9.70243472046583    1.84536996586953
H         2.17550415345068   10.24487243393170    0.91664642413602
C         2.66574774900558    8.46004004174584    1.98136490573245
H         3.23538552153471    8.03959932927224    1.16491866370481
C         3.81855479751027    2.60063165546339    5.45667456157764
C         4.95713022823784    2.19727545640789    6.10685816632012
C         5.39472324163545    1.00329387788042    5.45241192350583
C         6.47123584533311    0.14295993523778    5.67158526362178
H         7.16088629500969    0.32563316212670    6.48194699771600
C         6.62546436416810   -0.93874941625062    4.83570087736933
H         7.45065458703364   -1.61919621974721    4.98542762337694
C         5.72969729964925   -1.17826261783192    3.78980785655483
H         5.88274061797755   -2.03633409650589    3.15251838208362
C         4.65674928069832   -0.34625047739790    3.55490880803445
H         3.96616713361006   -0.53754362983876    2.74786605883476
C         4.49314914954132    0.74956357872282    4.39417224344396
C         5.66913404083771    2.85329990383413    7.23719231173214
H         5.18649780887984    3.78896259131381    7.49868220623083
H         6.70047624872661    3.05750733415280    6.94859546116263
H         5.69480420748495    2.20266352524506    8.11227539287626
C         1.31092035728858    0.80955932745116    2.99520976626158
C         0.29136556843438    0.97605313054485    2.05778248448445
H         0.25936507738264    1.88706124604829    1.47200596037831
C        -0.67832519341953    0.00474333147871    1.90808701458015
H        -1.46267528505171    0.13286594623994    1.17658846744749
C        -0.65176593017051   -1.12647539762356    2.70988467235011
H        -1.40919795581776   -1.88830561509323    2.59419462246535
C         0.33199176709511   -1.27103485207805    3.67403374691633
H         0.33751848971718   -2.14175465753420    4.31461390126118
C         1.31178185506949   -0.30508450769117    3.82490763112763
H         2.07030338680538   -0.41979492246867    4.58649234128878
C         3.59418472947286    1.92080240665190    1.70259504840609
C         4.85837358350307    2.49960184054875    1.78885245556459
H         5.14082373690521    3.03955447148849    2.68523588350545
C         5.74669650760161    2.39178168949753    0.73881656811437
H         6.73065342818360    2.82980059719180    0.82010709888822
C         5.36892435632665    1.73278488237039   -0.42059982751879
H         6.06009074339369    1.65437948689968   -1.24695173307246
C         4.10290189047552    1.18166001992102   -0.52148635513474
H         3.80441493784935    0.67562505345483   -1.42833450200972
C         3.21407296541228    1.27152255963962    0.53534476618609
H         2.23019359405763    0.83180154326986    0.45466795859753
N         0.11736418133329    4.08609042515577    6.39865249088844
N         3.90051580761004    6.28251205332138    4.98050802064182
N         3.52848869088242    1.72884983050513    4.39919470106404

