62
CSD_code = NUTMEV | q = 0 | S = 0 | Stoichiometry = C17H32Cl2N2O6P2Pt | MND = 4
C        10.91436134651297    5.45617854865849   -0.68613881183467
H        11.66065045073448    4.67737380835061   -0.60847063626498
C        10.23804796750410    5.68465707512073   -1.86908594167360
H        10.44141889166383    5.06902675318243   -2.72991735908058
C         9.31026615025799    6.71322257346317   -1.92482413443978
H         8.76758582644460    6.92589075679894   -2.83269036783167
C         9.09422259116545    7.46421971009131   -0.78046929724588
H         8.37961465816442    8.27261900267695   -0.77995314094471
C         9.80943323841384    7.18302704833497    0.37418666626075
C         9.56824132122265    7.94578276521345    1.64436353939032
H         8.90504532605729    8.78822556270354    1.45006161106529
H        10.51768876219513    8.33321189406118    2.03154254071348
C         8.94678027937660    7.02711453054421    2.70790885227294
H         8.47701428282951    7.64153879366190    3.48304885284542
H         8.18168124778041    6.39780847565899    2.24034302363424
C         9.47108880685499    4.93776374677259    3.89476597509543
H        10.33004249449022    4.38811695581716    4.29117834384551
H         9.00360275047182    4.32692978061747    3.11416573976817
C         8.47374690081467    5.14422038185226    5.03171703605195
H         7.54463348054895    5.60112925394911    4.67950095516446
C        11.58455347826405    5.84731869161577    7.14723420604898
H        11.68629529172316    6.75602570060168    6.54870161233850
H        12.18144358033898    5.05694543206282    6.68750973278691
C        12.01774625428151    6.10871409260465    8.57818513892397
H        11.45181468146416    6.93760752544060    8.99756058847029
H        13.07422048092517    6.36080007258132    8.59065605231902
H        11.85787905450055    5.22680375846474    9.19408889844260
C         7.73178587739057    5.80025507511942    8.58372958934230
H         8.40538338804728    4.94482685963942    8.64406522188379
H         6.70235176505555    5.43525222043812    8.58356156690906
C         7.97709424551448    6.76184895180802    9.73369602304390
H         9.00682408610089    7.11037660877007    9.71368597632870
H         7.78775508274301    6.25960631009129   10.67848520021998
H         7.32005200044086    7.62327863091871    9.64790502255134
C         9.70550076508692    1.82980239732310    6.85275140331218
H         9.80586701786452    0.88104326753011    6.31649634549748
H         8.83918648303410    1.77345179522344    7.52046830727135
C        10.96955221971294    2.14556591106815    7.63218928297228
H        11.81272246116987    2.23113234242942    6.95202864272185
H        11.16653600594975    1.35351363204831    8.34954483242202
H        10.84996790124183    3.08818261988609    8.15798111808050
C         6.03067693973906    2.44991131842025    4.45347166714278
H         5.69635614215933    2.19084323217004    5.46241751953022
H         5.91021002668569    1.58658453152227    3.79392119905347
C         5.24063526099923    3.64279385673061    3.94127371425919
H         5.32995126171970    4.46765517574160    4.64529515326705
H         4.19205834399351    3.37540513912946    3.84409063718363
H         5.61716054488303    3.95730848824478    2.97029708885626
Cl       13.61086547763904    5.53658591591210    0.90294000103969
Cl       12.80161023739441    5.40082986597498    4.01558678944159
N         9.97557598181767    6.17301937790296    3.30010579645636
H        10.41324228686390    6.70838774918573    4.05928227472011
N        10.71016101881199    6.19012962702663    0.41200343446661
O         9.59521274967095    7.54330545959220    5.77882352994015
O         7.91958308024867    6.48106820377823    7.34092220862838
O        10.21696511605825    5.41787524592236    7.11981113186126
O         9.48503314480950    2.85689570479460    5.88409808925689
O         7.42464798187951    2.71825131052308    4.47978603636149
O         7.18767187986876    3.45263536621403    6.92309199088302
P         9.12581976451957    6.26931760996117    6.33361763761012
P         8.04984345113734    3.51898501549609    5.74075945334418
Pt       11.72242041476080    5.82340249256590    2.08934643800382

