64
CSD_code = NUTREB | q = 0 | S = 0 | Stoichiometry = C20H38I2NP2Rh | MND = 6
Rh        9.16069076484376   10.76716135150368    3.95478907955797
I        11.18225999114248   10.85598997835588    2.21928267923544
I         7.85966176684084    8.82553665576997    2.49142762349417
P         7.93408928742636   12.44079601743210    3.00176097160673
P         9.91844762460201    9.02160003644119    5.25298602633794
N         7.74765514105698   10.95117575764120    5.41339546417934
C         7.33195292306052   13.21247028596263    4.57686018413513
H         8.12924798365383   13.85770769038155    4.95784533759573
H         6.43904329681990   13.82603865154841    4.43802578002258
C         7.08503881560735   12.11187460306059    5.56333109374265
C         6.20425813377817   12.30434033958823    6.61725840520804
H         5.68474643074182   13.24560317883198    6.70774841394913
C         6.01082773714835   11.29540627872829    7.54459921295331
H         5.33484059753570   11.43082340725140    8.37420671796374
C         6.70534715255562   10.11118175296722    7.38266047429366
H         6.58227267002522    9.29604221939866    8.07815350636902
C         7.56563147228142    9.96210964111002    6.30281164331030
C         8.28623734445155    8.67815738300274    6.07408054977649
H         7.71273433736411    8.08750063134196    5.34853868868778
H         8.37574021076947    8.09859658392227    6.99339263051077
C         6.30424301018637   12.11212163565909    2.14165000735048
H         6.55491648126165   11.45190721024282    1.30160710451226
C         5.33928084165810   11.37249884805774    3.07102299714651
H         4.91479692477338   12.04523465531225    3.81541785191029
H         5.81412436342259   10.54237051940809    3.58607934050452
H         4.52126662472986   10.95928318250674    2.48404276576963
C         5.59209156245936   13.35121860482192    1.60480603463664
H         4.62333560984032   13.04680553369753    1.20994886368199
H         6.13713966453375   13.82807092120134    0.79720320745707
H         5.41156730271085   14.08196657196164    2.39215181735703
C         8.81914698479684   13.78200795531171    2.06018992368904
H         9.83906515248202   13.72049347763874    2.46619463635927
C         8.91050807805899   13.39069442459876    0.58423739639607
H         7.99984076700330   13.62695331274155    0.04087398912472
H         9.10515383687008   12.32381528546170    0.48107201166518
H         9.73374051631674   13.92247325400966    0.11168648091272
C         8.33561199039842   15.21468564206865    2.25926272564741
H         9.01218703349514   15.88378253331090    1.72903291149662
H         8.34469697990715   15.49900016663391    3.31006768153996
H         7.33648056030318   15.37368124296084    1.86624763089127
C        11.00376267737482    9.46171355287675    6.71234232999031
H        10.69035433227672   10.47050339996080    7.00841792176810
C        10.86766410131879    8.55629320701265    7.93394469967830
H        10.94383584070260    7.50198412850920    7.67366595638866
H         9.92447653890616    8.72045052041249    8.45178717311842
H        11.67034299854519    8.78376634350275    8.63413248687712
C        12.45509863350870    9.52594473329985    6.23217986209902
H        13.06769570228441   10.07695111532207    6.94421387468843
H        12.52641006357274   10.02332717382365    5.26478390873746
H        12.87764102273256    8.52881969432500    6.12754501561607
C        10.56891678947412    7.31889626782362    4.81696322904705
H        11.27156846140675    7.08380626698562    5.62674102510517
C         9.51977010076085    6.21201768060633    4.77194498078032
H         8.78158192867558    6.39264278369082    3.99499041234979
H         9.01613692568972    6.08615419935575    5.72859678192480
H        10.02014190680023    5.27432750938009    4.53461147287965
C        11.35414364485472    7.36652737893711    3.50895991593565
H        11.83392076093028    6.40571843209681    3.33064883942603
H        12.12592966687336    8.13292525131174    3.53675408906740
H        10.69684927467267    7.57324034383613    2.66841109445677
C        10.24631426807078   12.22279745482644    5.05393126541813
H        10.29839136747034   13.18043653421469    4.52901656749941
H        11.27682871890811   11.90419681355982    5.20955389920751
H         9.80390630726957   12.40938179248127    6.03981333695555

