81
CSD_code = NUTVIJ | q = 1 | S = 0 | Stoichiometry = C32H35AuB10IP2(1+) | MND = 4
C         4.21465224909371   10.58289356475379    9.60503586169109
C         2.58936533483115   10.34443422955565    9.45780942806378
C         5.74385523716979    6.25177234299643    8.96283081435124
C         6.56461648156737    6.04733280951365    7.87194116430760
H         6.29714639054322    6.41520503493696    6.89195690090628
C         7.74810888369304    5.33954133315240    8.02977316190186
H         8.38333670782384    5.17807671788350    7.17247849947624
C         8.09957868763297    4.84115977630963    9.27044670265929
H         9.01775187135598    4.28712104472259    9.38906242463849
C         7.26723583322822    5.04081069099852   10.35731660447040
H         7.52360918613704    4.64372841217568   11.32715852204061
C         6.08596775616001    5.74953338293126   10.20451102067674
H         5.43967962463408    5.89374175007671   11.05957264035719
C         6.61979114227521    8.89273616256389   10.42587838112922
C         7.87176389450962    8.47971685024142    9.96270809957351
H         8.07579922532618    8.43608777018492    8.90274482810737
C         8.85787996566730    8.11251348125963   10.85725186718356
H         9.82248894638598    7.80368121300406   10.48564924192638
C         8.60736140221811    8.13288775572944   12.21967917624663
H         9.37956218332645    7.84735817859491   12.91650171898074
C         7.35728979000131    8.50718334820195   12.68342615193600
H         7.14969471922492    8.50927507059851   13.74230247816707
C         6.36085563814864    8.87033863260780   11.79565477253388
H         5.39245625768808    9.14207133778100   12.18246480612345
C         6.19094080847947    9.64792893050597    7.68792221617224
C         5.76693196534430    9.15073635149303    6.46013465763461
H         4.94344582082755    8.44808361748250    6.42157371733952
C         6.39522958235715    9.54318950781839    5.29279420630801
H         6.06212670753010    9.15064511053163    4.34444714730234
C         7.45220309818150   10.43671421506670    5.34772379194672
H         7.94430353818604   10.74369795555588    4.43834655647656
C         7.88347630965390   10.93188323725012    6.56925363987948
H         8.70997914040915   11.62408673163175    6.61093733830352
C         7.26018498780485   10.54269598066948    7.73967676679608
H         7.60582935083858   10.92056693107428    8.69168184578983
C         0.73455242537207    7.97250129818665    9.91689080949889
C         0.71759275345480    8.04162724267908   11.30910950213013
H         1.44675988244035    8.62179069616681   11.84954964460891
C        -0.25750310098254    7.36925105776803   12.02364831127943
H        -0.27051885665798    7.44626266599269   13.09999601485566
C        -1.19838192186396    6.59168367573159   11.36963526808671
H        -1.95043160459824    6.06365504508520   11.93438771522823
C        -1.15745731634576    6.47987911947045    9.98965007650088
H        -1.86860081556768    5.85645667580886    9.47124501536264
C        -0.19673194865540    7.15801616343754    9.26527903203846
H        -0.16872017325502    7.04494279533584    8.19137430438980
C         1.23774289705062    8.93447346386768    7.29589280067401
C        -0.03463838280386    9.50539929075638    7.24467705643386
H        -0.54708533507728    9.76802221158815    8.15942802563009
C        -0.64391295557472    9.70769617333845    6.02185934870815
H        -1.62745714736464   10.14956262931709    5.98313565703948
C        -0.00208467496372    9.33557953156532    4.84976446354727
H        -0.48646317998723    9.49103588669283    3.89858845993603
C         1.24985313795704    8.74649187390377    4.89863490783480
H         1.74045358964517    8.43379437442949    3.99000453246851
C         1.86790625465224    8.54525052285270    6.11928077750483
H         2.83385670114881    8.05822485961937    6.15924092465559
B         3.38850104843422   11.32742353776352    8.29418675899103
H         3.55174012739230   10.84099095342924    7.23434190795665
B         4.63322098100996   12.20162533411661    9.19893779011063
H         5.66943534606235   12.37932737010246    8.68237643920490
B         4.56772487714893   11.67330975263095   10.88598372719013
H         5.56985616396087   11.49598654206392   11.47019938213048
B         3.83310829389980   13.21115623231376   10.41880870160135
H         4.30375871554629   14.22641317957039   10.76235911530032
B         2.98561860927669   12.11423047420541   11.56653263439224
H         2.84881321544027   12.36052053791385   12.70318297741851
B         2.08344165153121   12.95959995085619   10.26199070042249
H         1.29765848048785   13.79567529220249   10.49318277069995
B         1.81883065284756   11.79808164438047    8.94733511760978
H         0.88274119654354   11.70313237251800    8.25155278415951
B         1.73379626443191   11.26268235191190   10.62924346534347
H         0.73431186488867   10.80593818255907   11.03752446057944
B         3.27078801819555   10.46739240773772   11.02299320476794
H         3.37502209334603    9.44436355269001   11.60020497182983
B         3.10971116967656   12.99940337876870    8.78799183192573
H         3.05821756615357   13.85842343191797    7.99444000181075
P         5.31851434254936    9.15106871958990    9.19238189727356
P         2.06497631243126    8.65259272482357    8.88362176291570
I         2.66552152784682    5.11480914301589    8.21683750251285
Au        4.00076253460947    7.27872621947958    8.82687029406585

