48
CSD_code = NUTXOR | q = 0 | S = 0 | Stoichiometry = C22H20N2NiO3 | MND = 4
Ni        3.82483348053955   -2.05553690764619   11.09632140167586
C         2.67608409003481    4.17613068436731   17.61083865035271
H         3.74787137989207    4.38612897068938   17.53289213086100
H         2.34979423181753    4.35298518096336   18.63466433518161
H         2.12537320352091    4.83981440557194   16.93609798336685
O         2.39221511612118    2.82360939138091   17.34900517246107
C         2.68644153217739    2.32138042794869   16.11842963785272
C         2.35039941138395    0.98143679884442   15.91092604941637
H         1.88696212895498    0.43897553895649   16.72010420738955
C         2.60571473457037    0.37959070354862   14.70145126066388
H         2.34109015017065   -0.65484909703400   14.54055675316093
C         3.19344051310500    1.09218441579049   13.65310578132878
C         3.53852067244844    2.42130547842868   13.87178409685216
H         4.02788796284008    2.98805342437037   13.09456751729377
C         3.28966732530301    3.03396678512114   15.08685742351854
H         3.57590783104281    4.06576719190656   15.21922580843364
C         3.44439237620003    0.39753172601927   12.37123382987927
O         3.57028886593350   -0.87656968249684   12.44710535812383
C         3.47130512661933    1.11308505520843   11.18286993303300
H         3.22241202359115    2.16089161095961   11.20837934909523
C         3.74690378019492    0.54637655553169    9.92639251531460
C         3.54413614167378    1.46410111542205    8.74874432319016
H         4.45384563357461    2.02032012667106    8.52670601084698
H         2.76492875537567    2.18507747222462    8.98683672209574
H         3.24771062803675    0.90194079347515    7.86653836297991
N         4.11756161367968   -0.71658021769505    9.79072091990160
C         4.56167922759857   -1.30843723856714    8.59528952356830
C         5.13931868890243   -0.70279074246934    7.48266526333992
H         5.37662339117853    0.34771669901394    7.46906735522171
C         5.48074863378069   -1.47370808537462    6.38502211397960
H         5.92716080334703   -0.99859198559038    5.52398358554499
C         5.26385321656239   -2.84452342433705    6.38383118432023
H         5.52005719992534   -3.42743777198597    5.51075382352963
C         4.76492455355520   -3.47667727940961    7.50384306846349
H         4.64708097810531   -4.54903767188978    7.54014636763821
C         4.45684015548333   -2.72270935104510    8.63984676481311
O         4.09107955299480   -3.27185411613211    9.77518558928252
N         3.50243965632762   -3.53480443206188   12.35764673519037
C         4.00456605665003   -3.49581827579267   13.59299567461753
H         4.53609004914978   -2.59566906377160   13.87330959881427
C         3.85273538177527   -4.53402110724256   14.49632501709354
H         4.27991579865242   -4.45416088233106   15.48372092143455
C         3.14933511593262   -5.66376264027523   14.11122014866788
H         3.01331287781439   -6.49098338205543   14.79177265507387
C         2.62579909500870   -5.70299143708454   12.82932009086816
H         2.07096080624791   -6.56012106342982   12.48143697306814
C         2.82565980449937   -4.62287738718397   11.98605139219075
H         2.44593024768375   -4.63385730953645   10.97321061899580

