101
CSD_code = NUTXEG | q = 0 | S = 0 | Stoichiometry = C50H40N10Ni | MND = 6
Ni        0.34732064910250    0.33414757865459    4.16591042460653
N         2.24831105207325   -0.32472073182723    3.41425310352193
N         0.18872383685385   -1.43305821390409    4.52271159884070
N        -1.54758833871742    0.41315389420710    5.22875363266429
N        -2.94930069677218   -1.13498777344599    6.04177079735726
N        -0.87785653258780   -1.85238064986481    5.12643824536767
N        -0.92517608915659    0.38022132932351    2.42487579132160
N         0.52922479876857    2.08206978661629    3.73015822688632
N         1.53722600829548    0.95353356475305    5.89049120451722
N         1.24579839375235    2.84217889863986    4.49565950615438
N         2.57225256698213    2.85714473166124    6.46420363902371
C         2.32117192746957   -1.62145187681019    3.60237810707102
C         3.46758684690371   -2.41845646079016    3.27824243810207
H         4.34665076351193   -1.91618981229505    2.90196186399200
C         3.42876704835187   -3.76102929336206    3.40114998154832
H         4.29279542734338   -4.35799995017924    3.14326517486979
C         2.25202463548024   -4.44860102622135    3.83162409306912
C         2.23252175161337   -5.84699255256478    3.88269782686783
H         3.13221156433591   -6.38793978645977    3.62472626669773
C         1.09294167957040   -6.52796901837464    4.24139129364122
H         1.08972346477426   -7.60737765984703    4.27658579134086
C        -0.06219344307026   -5.81398158169429    4.54623723898641
H        -0.96654447199166   -6.34439902094934    4.80762524565322
C        -0.06494335275602   -4.43745171245703    4.51749106613778
H        -0.96654871893961   -3.89641185088344    4.74917397377613
C         1.08833952298969   -3.71719682526580    4.17651694157155
C         1.14161850347994   -2.27614683895141    4.11835330838057
C        -1.74616446378155   -0.88359585349431    5.45296786553432
C        -3.58227512161070    0.07914276072359    6.15920086993153
C        -4.82445332535985    0.44238444707486    6.65029524858468
H        -5.51508152257188   -0.28965874469108    7.04145186584236
C        -5.15103149390292    1.78553845130406    6.61441497339419
H        -6.11342367770900    2.10476071550430    6.98586493288710
C        -4.26894032260824    2.74001612350603    6.10609364928374
H        -4.57108921378532    3.77692371787479    6.09559829855520
C        -3.02684682367618    2.38985246385010    5.61810491081810
H        -2.34013829620320    3.12182151268107    5.22157495096796
C        -2.67900508851409    1.04422401655384    5.64617051463315
C        -3.45361135461997   -2.43517268214716    6.39400346120728
H        -4.06922932662083   -2.33232211086221    7.29242313333775
H        -2.59288402597744   -3.06840119351263    6.62309259011869
C        -4.26777735510958   -3.04888477313717    5.25856052645090
H        -4.63458102013701   -4.02896988318980    5.55170107082268
H        -5.11604080162080   -2.41383452230933    5.01357182474442
H        -3.64989136366976   -3.15215233131351    4.36965445076424
C         3.33923736411996    0.49297181231592    3.19858376050334
C         4.45184471378767    0.46586314472264    4.04843894308116
H         4.47717970079173   -0.24898206866669    4.85948176394598
C         5.47752367303083    1.37360770082188    3.88041272664352
H         6.32757964088199    1.34666347322200    4.54779534454293
C         5.42081058412984    2.32021860870708    2.86920625796428
H         6.22637812301373    3.02865831304505    2.74353090810257
C         4.31831695042796    2.35966219231197    2.02825022872393
H         4.26171075032401    3.10229293829303    1.24521911527219
C         3.28515194813632    1.46065883320524    2.19014062574366
H         2.42185408876318    1.48787471219054    1.54092315275733
C        -0.91740758854347    1.60885266807970    1.96398617854768
C        -1.68881819365798    2.05146188074029    0.83971568228599
H        -2.36013376959455    1.34521209108601    0.37363167403674
C        -1.54361237637847    3.30155398929624    0.35465405717896
H        -2.11933028400874    3.62512835526467   -0.50167930254710
C        -0.60968897344612    4.22735939599266    0.91451383009092
C        -0.43931552235448    5.49135003185562    0.33836039154154
H        -1.05105298618945    5.76087824879726   -0.51131770749216
C         0.49397389426069    6.37441876286112    0.82831984498079
H         0.61681895850292    7.34721792704792    0.37508994908108
C         1.28928537429283    5.99915694800316    1.90710377622915
H         2.03828620545660    6.68106636721450    2.28340144596842
C         1.13100953940162    4.76717089841625    2.50099773077518
H         1.75702914375811    4.48557419644449    3.33048085177763
C         0.17311003047193    3.85555154058952    2.03563809988672
C        -0.02671341420581    2.54588214937807    2.60841562459314
C         1.75293358113945    2.22807839084204    5.57469219769054
C         2.94120328233759    1.90755780000508    7.38640156502127
C         3.77062484080124    1.95268221565839    8.49372175281470
H         4.28127338774413    2.85929324209753    8.78222165964574
C         3.92536351528829    0.78399384815562    9.21626480348669
H         4.56766748950623    0.78126794430071   10.08444119986937
C         3.27449267009573   -0.39471402298833    8.84956389762740
H         3.43014708728459   -1.28333967656005    9.44358451679491
C         2.44267934046370   -0.45012123080725    7.75025152745737
H         1.93800020939043   -1.35860588236650    7.45955892286803
C         2.27287016371788    0.71474922630318    7.01058865904179
C         2.99931121024209    4.22825126517059    6.38612942269495
H         3.11468092269548    4.60970812902133    7.40497649855647
H         2.20735556569340    4.78944612538498    5.88378755183280
C         4.30913151363645    4.36682862403464    5.61539212720328
H         4.60753040513130    5.41099712883053    5.57408701426170
H         5.09672771720677    3.79412814769062    6.09997421184722
H         4.18746992921758    3.99177281324469    4.60200541736232
C        -1.89397539243767   -0.55646328860500    2.12782933656199
C        -1.51154366039988   -1.86255894220622    1.80448221292544
H        -0.45907187132558   -2.08770699224158    1.70844289563330
C        -2.46334246382221   -2.84104083493437    1.60825264699550
H        -2.15244156869562   -3.84543787603699    1.35806753396950
C        -3.81207950177397   -2.54412912997990    1.73873147024108
H        -4.55527377896331   -3.31353534893919    1.58946713305370
C        -4.20058659775971   -1.25654665279614    2.07503456012497
H        -5.24930601629434   -1.02219881596386    2.19306510323996
C        -3.25722779319810   -0.26801258190715    2.26758924289055
H        -3.55673596221909    0.72755200225503    2.56540804419906

