33
CSD_code = NUVCEN | q = 0 | S = 0 | Stoichiometry = C10H12CdN4O4S2 | MND = 6
Cd       -1.12642163957065   16.72811853488044    2.99527756833954
S        -4.35061663825572   19.98494125091697    1.57279462394062
S         1.45854476536958   20.56333213726088    4.27838071205542
N        -2.44611073746437   18.41186690758091    2.26440839486881
N        -0.05591731369433   18.64921622518746    3.49199829654926
N        -4.22438659129069   17.27887312045185    1.28945969283429
H        -3.73526899313490   16.40064806662180    1.47661211850134
H        -5.20214852933628   17.27943124111633    1.06159584429343
N         1.92243312566117   17.88154299369680    4.43514740832441
H         1.53927636380124   16.93601018243789    4.41923202294042
H         2.73176408948744   18.08818171181213    4.99240024767385
C        -3.62995635245737   18.38584692526016    1.73439689687217
C        -2.91988303129937   20.66078477518243    2.27361173373727
H        -2.84072626852857   21.71735673002138    2.42017594517763
C        -2.02659484192337   19.68011834954777    2.57414467204617
C        -0.72113530147140   19.81009084569147    3.19227242789660
C        -0.05920067894951   20.94644254337775    3.53964380526957
H        -0.35222437733071   21.96721621417024    3.41210215092842
C         1.08900288214054   18.85488425103804    4.06562555754657
O         0.10848709060067   15.66687851950196    4.51703168324001
O        -1.95124415517853   16.29500177967704    4.92918448536708
C        -0.89562496006598   15.72161161931647    5.27170869156026
C        -0.81676346181808   15.07939712101832    6.64477476900626
H         0.21556968045656   14.86080817160950    6.90120442769456
H        -1.38501815452333   14.15221322481052    6.62235249992638
H        -1.26657482030243   15.73758193760561    7.38283638800273
O        -0.27774966558238   15.98923070744024    1.17528397160965
O        -2.27498722011180   15.28637042763068    1.74239423580140
C        -1.28588197375796   15.28515339888199    0.96328341879457
C        -1.34043962434705   14.41177623686316   -0.27623680872308
H        -2.22590877991055   14.66084081793431   -0.85623839317076
H        -1.41427186087768   13.37062236108416    0.02835297988210
H        -0.44642202633577   14.56001067037591   -0.87321246878754

