66
CSD_code = NUVDIT | q = 0 | S = 0 | Stoichiometry = C31H29Br2N3Ru | MND = 8
Ru        1.11882297814889    2.80744610001544    7.91366367326936
Br        3.54956175371218    3.65155152444730    7.75355021054051
Br        1.37974333078840    3.16766355358201   10.45739487432225
N         2.37596021501807    1.08383791246294    6.08749765325090
C         2.99713981366899    0.76466510475503    4.91839329298676
N         2.68389245612304    1.75259166035927    4.05767020694378
C         1.87805663360926    2.65473040689390    4.71802439289210
H         1.53186125550951    3.52989069456041    4.20677851944386
C         1.66566475890285    2.25726166989950    6.01042296526993
C         3.80222699085618   -0.39617083948086    4.86346336284615
C         3.26629228031741    1.99227228431990    2.76287955389596
H         2.81986174314411    2.91260280476649    2.37197909284362
H         3.01706237520917    1.17472857135191    2.07873577245541
C         5.54379038763154    1.79594433359611    1.74006068360764
H         5.06778013335313    1.40783632950643    0.85089046829739
C         4.76960639403219    2.14880728099202    2.83713157625295
C         5.38456724238247    2.65522158752030    3.97419673448393
H         4.80706907463343    2.95912119484842    4.83530758516217
C         6.91883074510806    1.93241666723006    1.78392789057533
H         7.51169705487757    1.65345769464886    0.92571553034347
N         1.86472767576229    0.89683828778955    8.30267109830302
C         3.93658829553382   -1.13220370742638    6.01497779824143
H         4.54675314516112   -2.02219613623409    6.00162618712438
C         3.29224501201339   -0.77743741312032    7.23180969002886
C         5.86129846016392   -0.94802130240443    3.59695170204640
H         6.43434400461042   -0.67152110263154    4.46905032707066
C         4.47616163535741   -0.83339204427123    3.62718298545854
C        -0.93224179129399    2.37129344674185    8.50120116086166
H        -0.94416214325422    1.57218667391686    9.24452836407253
C         1.93154544352212    0.18119127827239    9.42945440841293
H         1.41483976740213    0.57141794403871   10.29430536430545
C        -0.91278070924919    4.25102464111906    6.00003610024931
H        -0.78079973093748    4.57969424074211    4.96717022757306
H        -1.71852503195626    4.85441106226164    6.42525621647675
C        -1.75777577032300    3.58448672739082    8.88294868751369
H        -2.19605121257161    3.40839593465541    9.86678595533801
H        -2.58217689977867    3.67921234424516    8.17019220878579
C        -0.74257402938050    1.98988404558841    7.17073340592914
H        -0.66058947931032    0.91542043596083    6.97008242676945
C         0.32620693366391    4.85835719674301    8.12643225708443
H         1.11626842150008    5.50816947031561    8.51394654204984
C         3.73523308421968   -1.18908961550586    2.50491529940445
H         2.65490672663173   -1.14390743232669    2.54038837260711
C         0.35875286181190    4.54191900544457    6.77634579492613
H         1.16821608350265    4.97535152114821    6.18818730037906
C         2.50484514687549    0.38528190415806    7.24091559525356
C        -1.31474481716802    2.76463275528861    6.00280247361106
H        -2.40721866407930    2.67015052188775    6.01832451380368
H        -0.96757193443879    2.29634513885501    5.07824338663408
C         2.66529141064307   -0.99642790589995    9.52576768474110
H         2.68546296174588   -1.51251073639257   10.47197808484148
C         3.37014616447976   -1.48304249841816    8.44439844697201
H         3.96672730419301   -2.37851787983700    8.51285800473567
C         7.53130843351601    2.41977999565682    2.92626995923035
H         8.60558940073179    2.52036281116238    2.96278707141235
C         6.76213454658580    2.78366983355655    4.01750980956663
H         7.22575160809487    3.17381713354820    4.91018339162274
C        -0.94719643145611    4.89590064478837    8.93992491472294
H        -1.55918507206223    5.73552787813983    8.58877065030599
H        -0.68230575395945    5.10062297864378    9.97819043289251
C         6.49685901600361   -1.38507252216469    2.44996743898419
H         7.57325762535382   -1.46105090167782    2.43050728982637
C         4.37493174761530   -1.63347371239738    1.36184598054090
H         3.79304082726798   -1.91233034108264    0.49555127264187
C         5.75614374806759   -1.72573366558007    1.33060811511078
H         6.25333436198726   -2.06919347100336    0.43613156196977

