75
CSD_code = NUVFAN | q = 1 | S = 0 | Stoichiometry = C24H46ClNP2Rh(1+) | MND = 5
Rh       10.36148446807930    1.41843235504904    3.60241803323257
N        10.65351879256431   -0.11628082556466    2.28206058315015
C         9.60226083127553   -0.66420143389183    1.65052893196218
C         9.74147669077977   -1.82016424508143    0.89186731423241
H         8.87741145747035   -2.25054055763439    0.41151156387887
C        10.98924938939066   -2.39981024322660    0.74983119865601
H        11.11599039515353   -3.30188437187581    0.17334238746970
C        12.07554752595255   -1.77775521017380    1.33982508849221
H        13.07004155015874   -2.17445017956957    1.21445095558653
C        11.88366188627441   -0.62865544352385    2.09489053071440
P         8.09460329333507    1.14604863298112    3.16996835515141
C         8.27063455404782    0.02564635301237    1.69750544479857
H         7.45445513921070   -0.69529324782986    1.62545112497500
H         8.21334905279011    0.66989970167894    0.81328067272928
C         7.37849291946434   -0.00736258117010    4.49984633260956
C         6.80303341548647    2.41090472304254    2.61419172055386
C         7.37888535689838    0.71821420683970    5.84919367470549
H         6.54168183026943    1.40061460594935    5.94636023408083
H         8.29773987233060    1.28808623145240    5.98923262111844
H         7.30388445339244   -0.00898826335670    6.65623421254724
C         5.99036054894168   -0.56698610876208    4.20545862652563
H         5.74752788160107   -1.31033768461861    4.96389913074727
H         5.94227816443213   -1.06063100051037    3.23672041041135
H         5.22592541801614    0.20284177937191    4.25240600149829
C         8.37587746721572   -1.16567490856070    4.59562019902438
H         8.10151114972723   -1.82697086094959    5.41600859349413
H         9.37378459700769   -0.77004452042989    4.80769454824030
H         8.41025444911408   -1.76279026410013    3.68550507344445
C         6.22397943500351    3.08670259582631    3.85704824237820
H         5.69037262245139    3.98941949751281    3.56558262997456
H         7.02160953678071    3.37515715686578    4.54041312572186
H         5.51847511397259    2.44346025001611    4.37468086321205
C         7.53671387617020    3.48020696480536    1.80301553520020
H         6.83297009596479    4.25717030497836    1.51107887877913
H         7.97115451178039    3.07530388817636    0.89132829449523
H         8.31728666151843    3.94057058080855    2.40381603514177
C         5.69294208107233    1.80933775441355    1.75339364289803
H         5.17870795730927    0.99088032137662    2.24485592308822
H         6.06914801371583    1.45999460916272    0.79463161478101
H         4.95735404011033    2.58603843977047    1.55075918063915
P        12.57712397396115    1.06344578058368    4.16935815562206
C        13.07078756959534    0.08531033967782    2.67215711627196
H        13.42777847972924    0.80085405967371    1.92402373352024
H        13.88625700064480   -0.60998904691865    2.87729230357405
C        13.90701310646575    2.39192626196570    4.36370449707766
C        12.67733835741152   -0.22945070820512    5.56274392604027
C        15.33148907328163    1.88193822220633    4.15439500093737
H        15.44656094982655    1.39655730308199    3.18753998109568
H        15.65063586359675    1.19775617599045    4.93161569485949
H        16.00763484008282    2.73516396749589    4.17493809476409
C        13.73591670866062    3.04006048001478    5.73838226792780
H        14.34796376854418    3.93816767383160    5.79491193579920
H        14.04241215066450    2.38483131726486    6.54828837445580
H        12.69752130537907    3.33238101263833    5.88978399362245
C        13.61224286358445    3.46539605503942    3.31324217952888
H        12.60437600939083    3.85281491518883    3.43962324847996
H        13.73798282791857    3.09189413108147    2.29893204523470
H        14.30679247023175    4.29306218001614    3.44250988253914
C        11.73579297813447    0.27232436815632    6.66088942091562
H        11.67569221780177   -0.45189255848044    7.47140271262174
H        10.72862435502381    0.42851821332687    6.26435923328815
H        12.07640241234740    1.21803748959771    7.07480495531623
C        12.16503525532094   -1.57351246894172    5.03136824828736
H        12.90743765681742   -2.06796546533670    4.40907285340758
H        11.24830632277681   -1.47160059910780    4.45534609063151
H        11.95376223118524   -2.23175667742976    5.87267516944794
C        14.07099387475638   -0.47637218028681    6.13436749090248
H        14.00676724210469   -1.28495388369003    6.86177585303343
H        14.46685723304251    0.39115829077500    6.65189789695254
H        14.76998920079109   -0.78693397831816    5.36070960197925
Cl       10.05060269878973    3.06219702977825    5.08782182078776
C        10.73217987297178    2.58043732852600    1.92701546299209
H        11.73947451685025    2.40860358879006    1.55892350525944
H        10.61610472546929    3.62237001510648    2.21846533433858
H        10.02471339059234    2.33491236467077    1.13935438813529

