94
CSD_code = NUVFER | q = 1 | S = 0 | Stoichiometry = C33H55IN2P2Rh(1+) | MND = 6
Rh        7.48289055223910    5.58048921511776    3.97684758097419
I        10.12749841652211    5.37397670473254    3.82683576480471
P         7.28583013119594    7.54791777563305    2.66509784627009
P         7.08244931545506    3.67893309788834    5.38607866131266
N         7.56551945977916    3.71340068245630    1.37510483438805
N         5.45930532281488    5.81239207748339    4.14510333005895
C         7.73191460208196    6.80245377584808    5.67378435532094
H         7.92161781415973    6.20048986235904    6.55644854187984
H         6.87282035122561    7.44163842652786    5.90088794860439
H         8.60065486788280    7.44710487587287    5.58546969420299
C         7.39705007803929    4.36630689584723    2.32613974637040
C         7.71387228055792    2.92128374774318    0.28319680077992
C         6.57349305205278    2.33585792131115   -0.28598537040649
C         6.74388116053504    1.53028080715175   -1.40069183597328
H         5.87850784385823    1.07145515469641   -1.85393111376336
C         8.00319723864990    1.31160077495238   -1.93144469278196
H         8.11624269562136    0.68243206999474   -2.80033496473993
C         9.11684303118964    1.89275914227685   -1.35044887456435
H        10.09597725218467    1.71341794649276   -1.76635967380328
C         9.00084909943743    2.70592068095591   -0.23357386901537
C         5.20341447187307    2.57823931935612    0.27110192099286
H         4.55915258814776    1.72629461696305    0.06881817479446
H         4.75422772098607    3.45420757237282   -0.19895147842669
H         5.22737899382478    2.75019527487171    1.34654562534912
C        10.20556746887869    3.31384080483548    0.40479924218626
H        10.43642315012572    2.81083386584854    1.34383205481795
H        10.05485719074731    4.36693905562189    0.63106037736648
H        11.06884209106307    3.22036925263409   -0.24669053168783
C         4.88474983154818    7.00348253337472    3.91734031771101
C         3.51447976048142    7.17794474798204    4.06684720065544
H         3.07988061995542    8.14946745470708    3.89309766221277
C         2.72263829657464    6.10592397395123    4.43645395387774
H         1.65792588059616    6.22278582593646    4.55896965711112
C         3.32721783640576    4.87793087735468    4.63692705335209
H         2.74212722321995    4.01391186881685    4.90885646245698
C         4.70265343164048    4.75834293675903    4.48803927764210
C         5.73885659305808    8.15590569603001    3.48963982575514
H         6.05420958748150    8.72038998372868    4.37250592713352
H         5.17352499614117    8.83659715280924    2.84987218859605
C         5.37227567286239    3.43653891119413    4.68831758808962
H         5.51025231432405    2.95759919698489    3.71117398065568
H         4.75669840281095    2.77835914618698    5.30319911430666
C         8.40565807911419    9.09326235107215    2.64083778194709
C         6.67248743103105    7.25791792986834    0.87388686960852
C         9.46078214917178    8.91193922255813    1.54850477780815
H        10.21280311490170    9.69284796040556    1.64464371520869
H         9.04453992732028    8.98094158041329    0.54961840405563
H         9.96798542331191    7.95489364455032    1.65983040339853
C         7.61085076693257   10.38769837474440    2.44459425662208
H         8.32276209537795   11.20172201393209    2.31685924115922
H         7.01100332562543   10.61878844069808    3.32226355196271
H         6.96618301125312   10.38212976630913    1.57560005173829
C         9.15585299058320    9.23932243623432    3.96533792583466
H         9.81019751084541    8.39136642327854    4.14669575873094
H         8.47727652345094    9.37933734267615    4.80336442541724
H         9.78647755017402   10.12537711202889    3.91013029294674
C         5.42473264495032    6.36655724485483    0.93756774174395
H         4.56992879627664    6.90846827238444    1.33920968007654
H         5.57865204094203    5.47184809323544    1.53587400152951
H         5.16356649847839    6.04902500914250   -0.07123021708903
C         6.24321224893524    8.50911111572607    0.10395341784254
H         5.84158137706391    8.18877519494941   -0.85725337076943
H         7.07016512234131    9.17939230141985   -0.10451157638972
H         5.45392068721587    9.05679669495108    0.61537321847293
C         7.79707016133604    6.55050717500189    0.09684891314050
H         8.53784726716078    6.12102219768201    0.76958054605721
H         8.31511157444789    7.24069091138133   -0.56260653183713
H         7.39692226309183    5.75133456124301   -0.52426982096990
C         7.90417822875113    1.97286515331228    5.13216571833608
C         6.70956794540780    3.85813187001747    7.25488836059700
C         8.39877125683598    1.85667940747870    3.68982477474307
H         9.03837812445780    2.69118386687462    3.42056820282569
H         7.57071072474472    1.77792618470013    2.98852583593679
H         8.99189537632971    0.94878143437428    3.59285790690471
C         9.12948979908209    1.90145248966725    6.04434529828245
H         9.68016222255634    0.98536948823989    5.83823333770455
H         8.86462706138405    1.89721805661211    7.09617565676623
H         9.79956026542729    2.73806091909101    5.85096232849244
C         6.97072102611985    0.78079079589598    5.36160682125459
H         6.09493521625174    0.82427688407471    4.71744142016573
H         6.64583339343490    0.67025832364973    6.38709964700477
H         7.51842478888262   -0.12373305555786    5.10025758602128
C         5.60397393390351    4.90958462093820    7.42983853406937
H         4.63458064930027    4.51096040161962    7.13457824381277
H         5.78749475777879    5.81854842392744    6.86745741927549
H         5.53597654335162    5.18080344893708    8.48247864154634
C         8.00289353489135    4.28625506352886    7.98119718264227
H         7.85678648000043    5.21727734738457    8.52483640450818
H         8.83850566109493    4.42104150780704    7.29468926479003
H         8.30174291327737    3.53796484994303    8.71149650830949
C         6.16962298811192    2.58703024826964    7.91588159897982
H         5.84262202334705    2.84965325683424    8.92173757462682
H         6.92621083084293    1.81628403312748    8.01888457443357
H         5.30679498480994    2.18094990487944    7.39188739489285

