63
CSD_code = NUVGUG | q = 0 | S = 0 | Stoichiometry = C28H22N4NiO8 | MND = 4
Ni       -0.00011676215136    0.00059019829409    0.00055761501908
O        -1.80597802002812   -1.49233469399279    1.78900104715228
O         2.78852126095921    0.03612875677763    0.03645265504823
O        -0.08092540961971   -5.54035417693395    6.12112506139064
O         6.51491824385420   -2.62964003907321    4.28066999211747
N        -0.53731289385027   -1.13376166278713    1.46447864967264
N         1.72854841243444   -0.45236098788579    0.57105270203230
C         0.46235009927095   -1.68336258121946    2.08567145159882
C         1.76981512766724   -1.24093398313216    1.61839385000670
C         0.31656876261022   -2.69652774440173    3.13604407265501
C         1.10867182626508   -3.84334661558612    3.11097930092002
C         0.98112482524833   -4.80297322457340    4.09323368382479
C         0.06663484087200   -4.62990079224986    5.12799570294888
C        -0.73111633171170   -3.48843045712316    5.15456142830592
C        -0.61281566073210   -2.53843929719642    4.16401066840665
C         3.01671664917958   -1.60897635004672    2.30092088336537
C         4.15151662088935   -1.95446780419379    1.57160047349696
C         5.32271135981265   -2.29864625303406    2.21654953634617
C         5.38522515019252   -2.29388908092573    3.60500035682699
C         4.25905048434361   -1.93191908618539    4.34076643352984
C         3.09087829327799   -1.59268086862900    3.69513577834433
H        -2.39358777212718   -0.97130063006807    1.11890274931957
H         0.52169625075325   -6.28176382379264    5.98473307304964
H         7.22283328175874   -2.83244700219830    3.65695485647435
H         1.81359364301320   -3.99333826535487    2.30786484178167
H         1.59493517213234   -5.69337536727013    4.06138994700559
H        -1.43843531228893   -3.36965849256068    5.95932465794172
H        -1.23414212610041   -1.65772777622229    4.19343883153157
H         4.11684217071257   -1.95933227431076    0.49371948922428
H         6.19680615897581   -2.57019056948338    1.63934277671731
H         4.32513279448338   -1.91805007184469    5.41680449569078
H         2.23120628702152   -1.29510248833403    4.27549781850572
N         0.53710044836686    1.13445228249983   -1.46377386986600
O         1.80576814257856    1.49276159243677   -1.78854972827508
H         2.39337068901526    0.97168436074067   -1.11844644305906
C        -0.46257803732149    1.68377700130407   -2.08519170841908
C        -1.77000865192422    1.24186154193985   -1.61741095964497
N        -1.72880103231548    0.45388471168810   -0.56963200164596
O        -2.78886259362892   -0.03375950334146   -0.03445641923457
C        -3.01690710521607    1.60962718591833   -2.30012277942143
C        -4.15134667328609    1.95684840973801   -1.57112098634840
C        -5.32236819589925    2.30091933163366   -2.21647090927836
C        -5.38505136205283    2.29419694821642   -3.60490642109148
O        -6.51463138356929    2.62998988886103   -4.28079807329071
H        -7.22222627082185    2.83389650029534   -3.65707711119337
C        -4.25930754683964    1.93018577214401   -4.34031376603973
C        -3.09127770577673    1.59120954584174   -3.69429632734885
H        -2.23181067859490    1.29218126844445   -4.27422682289285
H        -4.32558191210360    1.91457931413351   -5.41631284649167
H        -6.19622733313396    2.57389812155391   -1.63958192922244
H        -4.11654441243296    1.96322003885832   -0.49324883558213
C        -0.31682672151619    2.69618124652087   -3.13629993661840
C        -1.10854820226940    3.84326861934405   -3.11177998730144
C        -0.98069749823689    4.80235229924717   -4.09451850620357
C        -0.06633890437948    4.62846621535307   -5.12925641204887
O         0.08136868351050    5.53836271782278   -6.12287074254564
H        -0.52096661206939    6.28005129279730   -5.98673103630432
C         0.73095050834949    3.48667160384943   -5.15534270906903
C         0.61237021486263    2.53723944198538   -4.16428877424628
H         1.23350394951300    1.65638888752273   -4.19322854722663
H         1.43813405355304    3.36718004176482   -5.96011703423121
H        -1.59416320525074    5.69300219009458   -4.06310594410792
H        -1.81336207822947    3.99393463632947   -2.30869731200431

