37
CSD_code = NUVNAV | q = 0 | S = 0 | Stoichiometry = C15H16Cl2OPdS2 | MND = 4
Pd       -0.79636005823631    0.80728874120183   12.39458533084450
S         0.29266513843272    2.29524663621120   13.82905191200105
S         0.91443616312859   -0.72646400564377   11.88475061053597
Cl       -2.61958198912918    2.04081048804591   12.85514397453490
Cl       -1.92286032768159   -0.44445076724046   10.90609336427563
O         3.55985835675016    0.28764090581638   14.73699131169423
H         3.49223165645018    0.72506406112857   15.59298836418491
C         0.21188036505822    3.68871793005829   12.70290604044522
C         0.18084452701405    4.96414782880341   13.23940016434820
H         0.20808306643429    5.09489934696519   14.31016118616432
C         0.09008367693657    6.05616791329980   12.39242439023231
H         0.05606427398215    7.05233184181338   12.80620334454438
C         0.03149259176535    5.86721471852950   11.02259085409344
H        -0.05084008471096    6.71844317796841   10.36409263431142
C         0.06505523321103    4.58652944750382   10.49267112967726
H         0.00694309409059    4.44014205714059    9.42498028115749
C         0.15484706857706    3.48683127703117   11.32842512398566
H         0.16457118974626    2.47202791150243   10.89884127986590
C         2.08366045543623    1.89793297165211   13.66259064495391
H         2.39960852834178    2.12008541720992   12.64258666316874
H         2.62030258986997    2.55585319218430   14.34873691281800
C         2.34917555378052    0.42884813306906   14.03217667544214
H         1.50841885184168    0.05924380868700   14.64957859353977
C         2.48341157124423   -0.45718164073505   12.79620016110113
H         2.86001604629224   -1.43389513468527   13.09698559079615
H         3.18422777302752   -0.01097890241882   12.09109036411753
C         0.27632414565968   -2.08300951737812   12.87107066349907
C         0.35409169918045   -4.42138909693467   13.37995069741205
H         0.76953278488636   -5.40220563737665   13.20516007060962
C        -0.64792225158494   -4.24490155726807   14.31979101738350
H        -1.01520006048675   -5.09025590355549   14.88158318568567
C        -1.18723115388899   -2.98689681638080   14.53240820350319
H        -1.97370761943365   -2.84972812579688   15.25871458981201
C        -0.72884872919130   -1.89640638170975   13.81095409208450
H        -1.18210495730680   -0.90468767546700   13.97755713079490
C         0.81693225628811   -3.34045583431854   12.65086650052985
H         1.58549857422928   -3.46916080891564   11.90349694585343

