79
CSD_code = NUVPIE | q = 0 | S = 0 | Stoichiometry = C35H41AuN2 | MND = 2
Au       -0.84735461199536    6.46518608591348   18.96313013710870
C        -0.47534407265510    8.22765088662846   18.07466315844353
N        -0.57656968871305    8.53181349041061   16.76774309237586
C        -0.23254497211707    9.84087207121182   16.54486429691989
H        -0.24933481659677   10.27578065695896   15.56694637766346
C         0.09295760632680   10.36623564248837   17.74932274341811
H         0.41585127314793   11.34842482425141   18.02640158690695
N        -0.06279115190013    9.36177937355245   18.67010671717843
C        -0.99372330643062    7.61060611834882   15.77020822374216
C        -2.34367380053890    7.56816215838285   15.41570655570635
C        -2.73508283436159    6.64955971706502   14.45190085492345
H        -3.77310972046027    6.58258476927365   14.16704315299054
C        -1.81145858431862    5.81094566858377   13.85787783780706
H        -2.13323160507860    5.10164088976945   13.11008571450671
C        -0.48072821838834    5.86845036225143   14.22349357288534
H         0.22738508548138    5.20058230317415   13.75853490504179
C        -0.04634563292098    6.76655777713145   15.18893631181390
C        -3.36099325131032    8.45420421952865   16.09578536330992
H        -2.83859828268320    9.22410549055115   16.67353443120165
C        -4.25931366726455    9.17156651757286   15.08685506822955
H        -3.66011285077031    9.70450263681190   14.35106314818036
H        -4.89271885742788    9.89046200807148   15.60201115471823
H        -4.90330059040484    8.47034862369063   14.56365255676720
C        -4.19074297330736    7.61505660832669   17.07115911924025
H        -4.90067929444533    8.24616456435738   17.60117845562300
H        -3.54301424933595    7.12955630403477   17.80005618815965
H        -4.74167846333860    6.84384684443270   16.53881952977856
C         1.40601622463825    6.80160464751821   15.60203925507290
H         1.55035247065543    7.59004358916674   16.34770619370555
C         2.30755825024467    7.12063986465206   14.40741297038694
H         2.01443992437145    8.06214327110404   13.94636651147797
H         2.24980443607046    6.33873557652617   13.65503711918871
H         3.34185337716161    7.20360508926750   14.73389887499978
C         1.80012618925586    5.47304614061845   16.25066363667021
H         1.15088046826552    5.26109563598756   17.09898626879479
H         2.82779493722405    5.51929628250619   16.60387485708523
H         1.71591090231626    4.65410041358920   15.54137663359446
C         0.18026932195697    9.47835702830024   20.06479617747839
C         1.47465448058547    9.26487540863027   20.54302961796991
C         1.68844119049044    9.36677981016809   21.91048916854787
H         2.67440656053831    9.19386627484150   22.31197908625431
C         0.65014638575173    9.67754511496509   22.76748643582039
H         0.83386873929594    9.75184731598617   23.82887627361492
C        -0.62365098759435    9.88248372898422   22.27419451874196
H        -1.42683096178638   10.11354631865318   22.95623581702601
C        -0.88428215845988    9.78340967767697   20.91425198171591
C         2.60176218385293    8.88075900941458   19.61325967301812
H         2.27630220395305    9.01848792983652   18.57668513673460
C         2.93689908247277    7.39972229410529   19.80830691147296
H         2.05401301160443    6.78537943871997   19.63583996498782
H         3.28616704886322    7.21657067583236   20.82123467311069
H         3.71520413313883    7.09505002375715   19.11214623769587
C         3.83804742685119    9.75634596226405   19.82423349208043
H         4.58593615523490    9.52802940639711   19.06796091280298
H         4.28226198138719    9.58246483866663   20.80025291574731
H         3.57914385400873   10.81059295852442   19.74643452840742
C        -2.28615866373732    9.98132031202991   20.38815785279133
H        -2.28018546436740    9.88177367865075   19.29796723851493
C        -2.80308203582375   11.38172031754108   20.72493378350605
H        -2.13210555651447   12.14298042322347   20.33095725126665
H        -2.88322409778203   11.51967928777471   21.79981688194165
H        -3.78795636009674   11.53005886993283   20.28763247284381
C        -3.21538138942804    8.90130459973783   20.94595045560133
H        -2.83235118123221    7.91187492032808   20.70049703618275
H        -4.20933639440829    9.00464629027473   20.51651350790321
H        -3.29732259498494    8.97868391680070   22.02673335842874
C        -1.19657607939986    4.77527709469087   19.83099357576014
C        -1.40789714595867    3.71955752172409   20.38642924787685
C        -1.65283863846990    2.48649048162623   21.03665685145753
C        -0.69715872367944    1.46761291781206   21.01261912744117
H         0.23384897262996    1.63177899962470   20.48688396163145
C        -0.93809888675419    0.26799888928804   21.65209451112103
H        -0.19110764287214   -0.51432099476127   21.62769986932363
C        -2.13182455295380    0.06106997510967   22.32542657521030
H        -2.31744990274777   -0.87919612587611   22.82547828862961
C        -3.08631352479951    1.06564854822531   22.35466933726210
H        -4.01907347001296    0.90696979216312   22.87943500075011
C        -2.85288153591082    2.26810770784962   21.71776916763361
H        -3.59607043300128    3.05379223524262   21.73954855057308

