38
CSD_code = NUVTAA | q = 0 | S = 0 | Stoichiometry = C15H16Cl2N4Ni | MND = 6
Ni        0.41154247048122    4.77656982826045    2.06763869900469
Cl       -0.86053495538301    4.83543578746156    0.26163875489573
Cl        1.49387953411048    4.84165540728889    3.95263187475574
N        -0.43321841802741    3.22567720505342    2.59563642967469
N         1.70378252164016    3.23311152472762    0.99939857056734
N         1.41326624205791    6.17012945720268    1.46145987991548
N        -0.94819334652689    6.64215490434592    2.74003398813901
C        -1.37758743036558    3.18291647393202    3.52368296348362
H        -1.60247924866104    4.11647463388947    4.02189335503489
C        -2.04048026416741    2.01583163407018    3.86584504374339
H        -2.80809593204221    2.03484430968034    4.62289737618554
C        -1.70127866754220    0.83753477101974    3.21865267385692
H        -2.20300143108915   -0.08846801842993    3.45513214545525
C        -0.69839540941826    0.87439214650903    2.26796600700648
H        -0.38750504509598   -0.01968171933820    1.74971772977638
C        -0.07287509437987    2.08410950272915    1.97962939197359
C         0.99571605783391    2.18439054265519    0.99147293802059
H         1.12225174774866    1.36402724776112    0.27806982542113
C         2.72568805344334    3.50208703784222    0.04387890686269
H         2.66078213835778    2.85405546399826   -0.84358255499425
H         3.68956425227066    3.32737672037828    0.53778890191947
C         2.63136857040215    4.98001287092063   -0.35772294943741
H         3.45285719109928    5.21388937852304   -1.03597237996590
H         1.68674095259081    5.14238998250452   -0.88101940003120
C         2.70017623252392    5.92595400625612    0.85468286392486
H         3.33738747492978    5.47859963797159    1.62685031067455
H         3.14259084535422    6.88281436494838    0.54328564340296
C         1.01574641187491    7.37010493027446    1.61848940632716
H         1.62119691354530    8.21317240059192    1.27983454110175
C        -0.25912796011962    7.67668074123699    2.23961225493140
C        -0.73788348885203    8.98705335395663    2.28639631589606
H        -0.14837708452418    9.79238673710039    1.87545378686770
C        -1.97443235504948    9.22572537211299    2.85604035220630
H        -2.37426909439825   10.22793697556802    2.90523160776435
C        -2.69089934302895    8.15008747238866    3.35622243854529
H        -3.66309854427866    8.28754317765651    3.80281018360799
C        -2.12998338841108    6.88230741174781    3.27419306207256
H        -2.67182110890449    6.02631632520520    3.65462906141359

