33
CSD_code = NUVVUV | q = 0 | S = 0 | Stoichiometry = C10H14NiS8 | MND = 4
Ni       -0.00001578285904    0.00074964505013   -0.00074024748188
S         1.74325686900655    0.40413348302014   -1.25464796042413
S         0.79570605353259   -1.99184043759307    0.48306308894942
S         3.13308853998686   -3.59857020497586   -0.06323904157332
S         4.15075989213308   -0.99607382751000   -2.20077569183174
C         2.70304466899203   -1.09108972761282   -1.18771024805766
C         2.30970990450525   -2.07556507826886   -0.36591285758493
C         4.74098307693176   -3.33655492676501   -0.88780968649444
C         4.57297340937712   -2.76568619086709   -2.27891911839835
C         0.91863837971899    0.16795832385028   -2.86744947501824
H         5.34944179246230   -2.68077984157930   -0.26480987659974
H         5.19398670456311   -4.32736119767340   -0.92306374106334
H         3.79258373343308   -3.28898818239388   -2.83182458243240
H         5.50906919040186   -2.81005172075399   -2.83522669162359
H         1.69196610497768    0.01305171523568   -3.61427902729835
H         0.24751990164561   -0.68789867000490   -2.81503885115539
H         0.36403889489606    1.07915611154628   -3.07042368564191
S        -1.74176741837739   -0.40328792491645    1.25478049653774
C        -2.70304906103701    1.09089123115450    1.18768208825113
S        -4.15000894249405    0.99441739960459    2.20169879195955
C        -4.57410823335201    2.76356332770122    2.27996225636647
C        -4.74324805333712    3.33414984079789    0.88887693738920
S        -3.13600478670018    3.59783913930545    0.06351038502558
C        -2.31099191589358    2.07557213767385    0.36553348117216
S        -0.79749125199188    1.99284643578046   -0.48454259000082
H        -5.35130186398005    2.67767248337135    0.26620722562904
H        -5.19732069295028    4.32446397888044    0.92427360882529
H        -3.79408021387936    3.28771032237280    2.83257424225476
H        -5.51004377050812    2.80688848340968    2.83662753044905
C        -0.91519447078492   -0.16457718007817    2.86622579535266
H        -1.68772649742763   -0.00979640595283    3.61390083217173
H        -0.24511531968663    0.69200763780498    2.81208547151619
H        -0.35929884130446   -1.07495017961412    3.06941114083036

