33
CSD_code = NUVWOQ | q = 0 | S = 0 | Stoichiometry = C16H12N2PtS2 | MND = 4
Pt       -0.41536875776312    2.24008606841684    6.44326193170913
S         1.21960310755684    1.49733886115088    5.05152945019779
S         0.91987769418336    4.00162237635804    6.97309219679533
N        -1.70231058972400    0.72855798004703    6.06390702513521
N        -1.94784286440455    2.78281268936311    7.64466822436842
C        -1.49578482760325   -0.29373916077877    5.22894708970437
C        -2.42460370244973   -1.28785739280555    5.01871894676692
C        -3.63795984320701   -1.23245896410645    5.70453201391139
C        -3.85995938794835   -0.18327703914634    6.56824801101403
C        -2.87836053770832    0.79797911380497    6.74139710956667
C        -3.01371762925355    1.93978431836590    7.62398092251320
C        -4.13951749306595    2.19368719812170    8.41437855898352
C        -4.17456783046240    3.30801975718947    9.22248684274728
C        -3.07230346769587    4.16292942768719    9.22948909637985
C        -1.99161907176167    3.86177067274906    8.43135259738467
C         2.50870704717032    2.66502240489263    5.19473386376719
C         3.67887620429052    2.49433254942565    4.45995852130989
C         4.70267257184901    3.41080110235661    4.56823596267297
C         4.57093890420419    4.50972878532553    5.41075453432659
C         3.41609962050522    4.68801687146078    6.14208956289429
C         2.37651905687787    3.76773794546274    6.04043922371909
H        -0.54421038059118   -0.30466796336776    4.71406679523738
H        -2.20913897977301   -2.09133785163643    4.33376278073028
H        -4.38743986080729   -1.99505601558199    5.56154248472129
H        -4.78912487850437   -0.11748395714131    7.11001455630596
H        -4.97789576520401    1.51705905619915    8.39085850948979
H        -5.03677452209953    3.51476887143114    9.83702146096559
H        -3.05804039914620    5.04622008497082    9.84653899248458
H        -1.11971072453395    4.50217261112880    8.41201791096753
H         3.76399243295260    1.63561652630351    3.81075133307508
H         5.60852168044805    3.27319617543018    3.99656156218361
H         5.37461123990306    5.22605674224630    5.49396045698916
H         3.29723195376638    5.53546015467706    6.80070147098220

