118
CSD_code = NUWCUF | q = 1 | S = 0 | Stoichiometry = C55H56IrN6(1+) | MND = 6
Ir       -0.79892848889173    7.31197426673139    5.16059677702410
C        -1.71722136006213    6.68717195537280    3.28780581012574
C        -1.64668046877175    9.28816346397189    4.68910782154471
N        -2.39877844302616    6.81396177976234    6.33126330043121
N         0.97686702665455    7.65996279507227    4.21216045625165
C        -2.31799146379359    7.20065048615387    7.62923436464502
N        -2.82630441112708    7.30189489707785    2.79857029625288
C        -0.09573718180140    7.89223001500082    6.98078522364048
C        -1.06796591229410    7.82646028043235    8.00623609472658
C         1.16894012908153    8.36332624339096    7.31745571758608
H         1.96713115010740    8.39191731026003    6.58727514221225
C         1.43673052464146    8.80050399505799    8.60401260927464
C         1.97613561777449    6.79387895818242    4.53268130903018
N        -1.39528119748161    5.77787417713302    2.35105815730921
C         1.25401120812166    8.67529219226716    3.39024551338613
H         0.42826652433493    9.31908988084707    3.11892259269048
N        -1.19474437097196   10.54684905275966    4.84662296009777
C         2.64802916710079    9.35484938274629    9.17925213944279
C         0.98023586442009    9.30761549097527   10.90669866046715
C         3.88924569690669    9.59981188003887    8.61337768545078
H         4.08047797522598    9.36081102838769    7.57713043746164
C         2.43973323727636    4.60583076782130    5.66743194635972
H         3.49091401166864    4.65748309805828    5.42878406591170
C         2.65724234775820    2.26699767004524    6.78888883088235
C        -0.29034811298643    4.47962509065820    6.30490008307366
H        -1.33476553074392    4.39568309527255    6.57187433475773
C         3.71869892777477    2.60785104846644    7.83941678467547
H         3.26904753451050    3.15554860381136    8.66487084199916
H         4.50195955170439    3.22159287508999    7.40085578047803
H         4.16809964390065    1.69836259511046    8.22971962635073
C        -0.08669192983433   10.96794660311166    5.66804035505258
H         0.37874228518399   11.83648007256663    5.19407777181923
H         0.63495999356742   10.15305957392141    5.71600578746725
C         0.18880480370027    5.60380479593359    5.64156439280906
C         3.39252719642422   10.21507987747255   11.30652435025116
H         3.21543473156642   10.45621821415407   12.34410191158636
C         2.40017434945544    9.66298450435905   10.52543803748632
C        -0.79815680966590    8.27093499306214    9.31023787753765
H        -1.55566569083980    8.22669096324010   10.07806939752940
C         0.56768340007641    3.44175079750029    6.63050595693619
C         1.56707540907721    5.64594811095800    5.31334159476979
C         0.44605714502214    8.76661427560243    9.59984774134179
C         1.55632672801807    0.23243080781062    7.99284300360570
H         2.48068438991387   -0.31963268119257    8.07616738857845
C         1.52172272464018    1.47541662166729    7.39835294716061
C         0.31179751990379    2.17879772168133    7.29788938415120
C        -0.86428387936245    1.63944027915636    7.79480244300228
H        -1.79536258489000    2.18233882024536    7.72005219670082
C         1.93700372889288    3.51075950861839    6.31976587101192
C         3.28902410847521    1.51236005585497    5.61474964265614
H         4.04917068909236    2.12439970389567    5.13507789104938
H         2.53068404707732    1.25692390488859    4.87737166426179
H         3.75309264701011    0.59396318268088    5.96473399022275
N        -2.73589477256911    9.41696117107615    3.89237632978125
C        -1.97677705374844   11.43874651318533    4.16133736034133
H        -1.77518925407511   12.48933789344605    4.14847183833897
C        -0.28402861693281    4.85872446407511    2.37242575191741
H        -0.65873871396018    3.86591238158107    2.10462082398157
H         0.10924125700911    4.82535665139867    3.38827638261717
C         4.63492180094981   10.45929807195320   10.73641259299424
H         5.42112163300817   10.89141910770177   11.33708798065214
C         0.37589025150605   -0.30581785953186    8.48767230134761
H         0.38876772634858   -1.27895269684564    8.95519175406499
C        -3.45080405322321    6.08309457538182    5.94978673142062
H        -3.44124226110076    5.71575648078606    4.93159882121562
C        -3.36532607810064    6.92572298836848    8.51683086986763
H        -3.29852514568673    7.25782026023920    9.53919495755841
C         0.20149067416099   10.54785665221449   11.35556565930341
H         0.63938847380526   10.96030766432775   12.26081458859908
H        -0.83562323644929   10.29182439787152   11.55888386428409
H         0.22627458865356   11.30972271651919   10.57961812249013
C         0.95603183745781    8.23562173133635   12.00070507270757
H         1.50574802366926    7.35448886978719   11.67679269134048
H        -0.06777291753368    7.94428663496653   12.22311530663664
H         1.41363232210544    8.61561646953976   12.91053472407518
C        -2.27480973857552    5.81963310740030    1.30110857670456
H        -2.19661405183456    5.16519566808365    0.45811185642972
C        -3.17950748512090    6.78292092780351    1.57889701701511
H        -4.02963858453894    7.12655423220426    1.02724730958081
C        -2.95103963548376   10.72795468277198    3.55249392535348
H        -3.76088254696997   11.03975117844619    2.92648575012873
C        -3.57445440308693    8.32644933734129    3.47870077170849
H        -4.34047569168269    8.70981485908727    2.79737439470146
H        -4.07089776835749    7.89822459022639    4.36227402405457
C         0.80113500461671    5.27680923162870    1.37433612326353
H         1.33355110517668    6.14873658910621    1.75899093980438
H         0.32368303041955    5.56718488666764    0.43482469301511
C         3.55713789136265    8.08923364828003    3.25475303401512
H         4.56013187306167    8.27047880926103    2.90143392312196
C         3.28007142457907    7.01757156803175    4.07339471317954
H         4.07052768352364    6.34920866643372    4.37217088770063
C        -4.46819262391960    6.21710427424903    8.09668283341422
H        -5.27764877835213    5.99981765049022    8.77576037176570
C        -0.81991272887205    0.39018024584928    8.39032333858191
H        -1.72477903311282   -0.04871871435311    8.78386778299051
C        -4.50149131784887    5.76149861647893    6.78259945146821
H        -5.32200199749728    5.16635500909239    6.41627691036041
C         4.87999284229121   10.15509015964416    9.40558442955895
H         5.85472451414122   10.35335830175634    8.98506382649950
C        -0.52521789641201   11.32324267820085    7.09150940361230
H        -1.02203621067899   10.45770772739748    7.53153603303737
H         0.37767976103014   11.51541990496545    7.67323035659334
C        -1.44601069135337   12.53838542350024    7.16919955130414
H        -2.38150918425098   12.32974710348863    6.64430127377191
H        -0.96861490779288   13.39309539392487    6.68378037924775
C         2.51056258999177    8.92722339143669    2.88200923662670
H         2.67110018834040    9.76235814702366    2.22036301907473
C         1.79276828824725    4.15015465123320    1.08753830217810
H         1.24685320976039    3.26952966628294    0.74258339764406
H         2.44825248102598    4.46870086028949    0.27478102944183
C         2.64443702164699    3.78037037675784    2.29406821869166
H         3.20252037092593    4.64717990382803    2.63835685147869
H         3.35195294704165    3.00052919321931    2.02495213947855
H         2.03187503586464    3.41721520885602    3.11473167805614
C        -1.76084501890638   12.89699854304456    8.61603129410908
H        -2.44573711583063   13.73963177445383    8.66035494216247
H        -0.85195419950498   13.16821233150433    9.14753768213447
H        -2.21849633778186   12.05270997211404    9.12636684098360

