41
CSD_code = NUWCUE | q = 0 | S = 0 | Stoichiometry = C21H16AuClNP | MND = 2
Au       11.80647529567250    3.80435114936286   10.97500623767506
Cl       13.67392906777349    4.86768616119615   11.68248222340658
P         9.92312695110737    2.79516145147404   10.28830624889544
N         8.97698111912719    0.54668928177327   11.32665756472228
C         9.07812794373546    1.82752388648073   11.57158477666245
C         8.63045807649894    2.44003056630067   12.77014518894402
C         8.75864258040474    3.81648192854973   13.02917455922970
C         8.31474908710306    4.33593617376325   14.21303554563879
C         7.72250013562540    3.50255080398733   15.17669209590782
C         7.58316301438587    2.16137408378248   14.95058318143908
C         8.03453120122753    1.59295307011830   13.74162665318012
C         7.93122782337716    0.21733499469132   13.44236546637320
C         8.40855065413135   -0.24472839304176   12.24508699747105
C         8.60441745876873    3.87830919427832    9.67741944486823
C         8.90953533582525    5.18874279763960    9.32768509800049
C         7.91386753849579    6.02361403314701    8.85215306641643
C         6.61674699846939    5.55294886168547    8.72916235965021
C         6.31081954209094    4.24623255812425    9.07897959317252
C         7.29983985525188    3.40566103262602    9.55334126078568
C        10.17619702480358    1.57715781414590    8.97878088516267
C        11.09520492431977    0.56510382187915    9.24746530588638
C        11.38063598670261   -0.37885218850692    8.28153804437634
C        10.76871746364261   -0.30381514586565    7.03911835113864
C         9.87514330504162    0.71710818243512    6.76344472522148
C         9.57670167896343    1.66349022825351    7.72876033589635
H         9.22167639907131    4.44921039015123   12.28212302474479
H         8.42031723500314    5.39045892483468   14.41725138707528
H         7.37994137401500    3.93395978423568   16.10542472865922
H         7.13116094334068    1.51760457913877   15.69077743162358
H         7.48375256472205   -0.45440984565644   14.15897626141107
H         8.35292162532645   -1.28998915813415   11.97232143243169
H         9.92703108297061    5.54330057140275    9.43495036115928
H         8.14997569202735    7.04122588479818    8.57954865456918
H         5.84005625820655    6.20575093179929    8.35980281827494
H         5.29838994734741    3.88310561477244    8.98082237970550
H         7.07367673263250    2.38273378657597    9.82368192252767
H        11.57412465191794    0.52926352436617   10.21718120211467
H        12.08544183371594   -1.16974380656371    8.49074001882764
H        10.99589668496938   -1.03916882418694    6.28156502644458
H         9.40876056500144    0.78008033805609    5.79116179253741
H         8.88248634720258    2.46317095612182    7.50997634779390

