24
CSD_code = NUWFIV | q = 1 | S = 0 | Stoichiometry = C6H13ClN3Pt(1+) | MND = 4
Pt        2.07682928048818    5.08550112428742   -1.04791372476935
Cl        1.20905660584113    5.50070922198754   -3.09347510259583
N         2.86226599913289    4.70285972810024    0.83824106871418
N         1.26209208021423    6.89639817578491   -0.47238702298755
H         1.84664467191893    7.52170062441165    0.08417783046470
H         0.37211920206336    6.76053419811761    0.01291084845933
H         1.05360261150790    7.34883003161236   -1.37073407588003
N         2.75455664539825    3.30109074388138   -1.83823417947701
H         3.76195759172077    3.14128448993712   -1.78677137048689
H         2.48939463498149    3.38913924985947   -2.82769076897554
H         2.27327949303933    2.48392128222951   -1.45695448899362
C         4.92780926320376    5.80039663726112    0.17223428867873
H         4.36999393794651    5.95413905356457   -0.75864949640566
H         5.82603782349206    5.22492711570637   -0.04455742222501
H         5.24995225661173    6.76576349242378    0.55734207954265
C         2.09378567823963    4.06156955424487    1.72351927908734
H         1.10676671598890    3.77343825487299    1.38201820676666
C         2.51705515292139    3.77501005118507    3.00469612628019
H         1.86628027186899    3.25655012334903    3.68877448324252
C         4.58486880872724    4.83288149998219    2.46348638145555
H         5.58127521929470    5.15545516150455    2.72001559611844
C         4.09351033995294    5.08976673106366    1.18570983563728
C         3.79417823039162    4.17126303505736    3.38388365825689
H         4.16128748505612    3.96667041957430    4.37695797009907

