24
CSD_code = NUWFUH | q = 1 | S = 0 | Stoichiometry = C6H13ClN3Pt(1+) | MND = 4
Pt        0.12281196642281    9.06948784368475    0.46252872203282
Cl        1.47739647518320    7.39277501869734    1.10317927291229
N        -1.44873672241728    7.81227237918330    1.02254517442482
H        -2.13914431304366    7.58803715663191    0.30631179327466
H        -1.94159985642584    8.11351339694000    1.86346319064503
H        -0.94581027901686    6.94793337620167    1.25690961704345
N        -1.21465675429240   10.72586421464340   -0.13333277712886
H        -1.84125942215620   10.44439490831349   -0.88431139293389
H        -0.68609365337689   11.53276853114999   -0.45812282525742
H        -1.78329071755083   11.02551029176444    0.65586782885924
N         1.74676304315163   10.12876666681927    0.04687015016440
C         2.47295099652260    9.91255694783043   -1.05582812777303
C         2.20604361922634   10.94802143359715    0.99950185507314
H         1.58223561666262   11.06622405367922    1.87935973080537
C         3.69897444183697   10.55112108874732   -1.22869280205722
H         4.26833788174468   10.36047988598422   -2.12433066195019
C         4.17850659698327   11.40186963956883   -0.25152122260260
H         5.13175580287086   11.89210847056581   -0.36905596071683
C         3.41270853154583   11.60649810955717    0.89021300791820
H         3.74990857574239   12.25510642077937    1.68143345312104
C         1.94876090707991    8.96559342190214   -2.08146599742991
H         0.90132713842145    8.71414442602323   -1.88382827586297
H         2.52791903405042    8.04326115738536   -2.04863617758052
H         2.04539109083118    9.38359116035685   -3.08055757497153

