68
CSD_code = NUWFAM | q = 0 | S = 0 | Stoichiometry = C33H18BF15Zr | MND = 14
Zr       11.00937976598334    1.23291952308353    9.08337238725768
C        11.38271593443278    3.43528724309605    9.21670948068349
C        11.33787122549429    3.33467787409143   10.69007505976015
C        10.16248432530460    3.16001831259812   11.33997626912924
C        10.03038554168495    2.90495754192287   12.80994723110235
C        12.62170703788730    3.48578453079811   11.47258872043747
C         9.78008635647817    2.08959542996207    7.05303042637421
C        10.16215197092706    0.77747133599268    6.71164006018953
C         9.50202849871298   -0.11367253425364    7.58059292109594
C         8.69736310960398    0.64771949655803    8.46249630212030
C         8.86240643865846    2.01060228962808    8.12985702022602
C        13.02725793172595    0.63875778813456    7.75790312014109
C        12.50559278723767   -0.58036208284502    8.25102801200265
C        12.65865460682099   -0.58161829103583    9.65385837380977
C        13.27135164748561    0.62985831170039   10.03227195075236
C        13.51033768086537    1.38114583277791    8.86009553069435
B         8.66258745673943    2.09027631934952   13.24900889637073
C         8.66437884702582    1.78177713771904   14.85788883391582
C         7.65231830723185    2.08766588952512   15.76300913493845
F         6.51047749469370    2.65077186396635   15.34816667296685
C         7.73739358174063    1.79965276982824   17.12295809132174
F         6.73627826084454    2.13405454724001   17.94373388068174
C         8.85568120183470    1.15064139928062   17.62844557746206
F         8.95299356299978    0.87011270980907   18.93152224875385
C         9.86024929290427    0.77157111791525   16.74758748598359
F        10.93189777166637    0.10038103823069   17.19339862320381
C         9.73896453581721    1.08219822649939   15.40017867097973
F        10.71984500225640    0.63259382718832   14.58544640597339
C         8.50951850631385    0.59388004620780   12.58307657936924
C         7.42106183821563   -0.23116032601959   12.90958852219722
F         6.53107747711851    0.18712405196696   13.80772235766993
C         7.18952323920782   -1.47632772043879   12.33282150555582
F         6.13330585255438   -2.19862412595911   12.70058008007313
C         8.03797262902967   -1.96969469586829   11.33577292469363
F         7.79452323380604   -3.12758620059223   10.72691648411003
C         9.12419398435573   -1.18609776556640   11.00079199101936
F         9.99837983251420   -1.46346941479437    9.98969870403693
C         9.34234790788547    0.01988223016696   11.65020198612588
F        10.51813249427084    0.62700885134685   11.19147784231114
C         7.45193345347592    3.04557603068170   12.73062172655445
C         6.74363497738425    2.82125659712776   11.55846828849805
F         7.02585186730113    1.72825873498839   10.79783200188496
C         5.78058824115609    3.68777732312296   11.05653533411406
F         5.14936426588239    3.39923581702329    9.90887133603379
C         5.49970156390106    4.86398662306594   11.73681564317929
F         4.57674058141931    5.71264933443106   11.27433879176638
C         6.22459767109416    5.15997634185428   12.88620847797112
F         6.00923437314451    6.31326046930149   13.52710422355162
C         7.18612883826065    4.26876796231867   13.34495866022044
F         7.90312742115508    4.64021131537994   14.41525829420220
H        10.53430906422489    4.01975785948524    8.83937154132779
H        12.30970219372329    3.88948413336181    8.85266354939339
H         9.23825862940693    3.19005363053077   10.76128428630715
H        10.01842282324080    3.86478789786814   13.33425484543437
H        10.92810701882217    2.39675799209000   13.15930969717923
H        12.57374465853364    4.41347561863769   12.04393805050288
H        13.48956410668190    3.53777657992343   10.81911213496538
H        12.76373274754381    2.67951537992542   12.19226213144188
H        10.02425112720726    2.98210694368798    6.49087198348793
H        10.74868496027912    0.49658031194315    5.84721491020040
H         9.48371993484346   -1.19138307685122    7.48050327253490
H         7.92515251239216    0.25851599283394    9.11216642629634
H         8.25638380423229    2.82523635565814    8.50439485629059
H        13.18865358332821    0.89203527742607    6.71689382304945
H        12.18741120573725   -1.42443022590171    7.65219986959673
H        12.48876954259190   -1.42595979659783   10.30941751509680
H        13.63781035054805    0.85710110110653   11.02336968704462
H        14.11724131215555    2.27355709636169    8.78872227639041

