124
CSD_code = NUWGOB | q = 1 | S = 0 | Stoichiometry = C64H55P4Ru(1+) | MND = 7
Ru        1.64563272835653    7.59638761426236    4.26924235755604
P         0.25617758844124    6.09931441173740    3.08595850181829
P         2.59704939988271    8.22823027298030    2.21059008988681
P         2.21632621629065    9.62487282327870    5.39716908294462
P         1.44159218782268    6.50678737882883    6.31443432226230
C        -0.28793984468406    8.91302036495516    3.88264162821678
C         3.46867501852041    6.54897306311906    4.33366887660944
C        -0.98492299263925    8.60073365818813    2.72440463910332
C         4.21074752587956    6.30987178962588    3.17196907518972
C        -1.72903719980020    9.60768150527207    2.11673364890290
C         5.42351727536602    5.63591265497834    3.21574230562977
C        -1.76024190096725   10.87886602369234    2.66524840544861
C         5.92047712352725    5.17097642841459    4.41936121641209
C        -1.03839811814027   11.18218867317187    3.81179494938628
C         5.18894507708793    5.36855364237315    5.57543060959950
C        -0.29570798984178   10.19184096505502    4.43598457773031
C         3.97621457597950    6.04623797594250    5.53620843801752
C        -0.88452225632547    7.22330279757264    2.12873999387704
C         3.64480439219840    6.75998321293762    1.85553418330639
C         0.53308145063866   10.39224736544594    5.66892030559752
C         3.18985136336531    6.23548543358636    6.80518101083031
C         0.71757128919306    4.84229036033319    1.85168803041992
C         1.70858768642161    8.51004175217393    0.63925134230693
C        -0.00135811005834    4.60438719134306    0.68508756270777
C         1.68091778389319    7.57538497904808   -0.39324958669810
C         0.39810033930257    3.59652726916401   -0.17588808840039
C         0.95743323832383    7.82840014963442   -1.54632415905764
C         1.50109004825261    2.81298591436936    0.12166973365250
C         0.25420712864748    9.01269831504775   -1.68895910439010
C         2.21230660002018    3.03543931291087    1.29023774683943
C         0.27951556544267    9.95127492845753   -0.67021420962618
C         1.82317598788997    4.04627611248576    2.14921598444198
C         0.99597449244594    9.69896978289639    0.48425800062237
C        -1.02282762415738    5.16751136070510    4.00831769791036
C         3.95462621344706    9.44500249730266    2.11556476732541
C        -1.07309210210273    3.77822833198641    3.99977705599238
C         4.17537385037355   10.26658400169741    1.01765899343325
C        -2.09364390635164    3.11642091856734    4.65798268173640
C         5.30434325147075   11.06611884754333    0.97241655615117
C        -3.06566849628287    3.82837572251386    5.33952478710220
C         6.22309203927973   11.04139302532786    2.00706725695810
C        -3.01760176848206    5.21212222364764    5.35907233786934
C         6.01218178580057   10.21366255441325    3.09791245056773
C        -2.00620900819715    5.87827733701612    4.69373081168002
C         4.88167273308397    9.42298615111949    3.15304729930223
C         2.97108569786469    9.69451651394841    7.05469116580172
C         0.66543874251558    7.26759438525564    7.77883864205430
C         2.34389229202572   10.18919714826488    8.19081228160095
C        -0.61451461086928    7.80118231040640    7.63601300435482
C         3.02816081217099   10.23710275040462    9.39452073608247
C        -1.26644381683533    8.36966335219652    8.71482293757563
C         4.33922023669964    9.80228433771311    9.47656994203519
C        -0.64415011390623    8.40993876711958    9.95220221244895
C         4.97585618875337    9.31367824857016    8.34574501590181
C         0.62008300576867    7.86616217753135   10.10589933495220
C         4.29496600884687    9.25719841905875    7.14430068247928
C         1.27385719518610    7.29406292084064    9.02856038916124
C         2.99314216595904   11.11557132830933    4.66111531918409
C         0.83671047688012    4.79187170984084    6.47878042389389
C         4.05050682281078   11.81032663234588    5.23496414528355
C        -0.24999822374640    4.44086932538152    7.27005129009130
C         4.51689903819379   12.97183059373111    4.64385150056211
C        -0.58343311477283    3.10727232171211    7.42961409867862
C         3.93793999943415   13.45344169529930    3.48320892949171
C         0.15659191608631    2.11955220924403    6.80301807910096
C         2.88142523798867   12.76707910619106    2.90781159501078
C         1.23305003613670    2.46656428222956    6.00224029208069
C         2.41729654526100   11.60736665126266    3.49450917839577
C         1.57164000443954    3.79546244157139    5.84059457496454
H         0.04492102804053    8.08330558944727    4.57729806071466
H        -2.27787499366140    9.39387804563577    1.21192541831515
H         5.97513091965283    5.47470252979145    2.30077872810053
H        -2.34394434222192   11.65006310932290    2.18690232513489
H         6.86454943934751    4.65008272100191    4.45479719102117
H        -1.05370999602247   12.18343198503281    4.21535996371461
H         5.55567977747643    4.99315011504226    6.52031007120590
H        -0.48079707216042    7.31201690978236    1.11406546063664
H        -1.87495284176704    6.75766656694893    2.05748036708013
H         3.01909914817035    5.96014438752350    1.44749756808073
H         4.42304920646716    7.01217753365230    1.12786787490956
H         0.06272547435147    9.86768573733479    6.51051775343377
H         0.64527448096889   11.45006180314122    5.92208213878296
H         3.54162820069097    7.12419987646452    7.33840783584450
H         3.27584318034126    5.36760585258725    7.46777452185446
H        -0.87297233140855    5.19240142411985    0.44129967879311
H         2.22077622210679    6.64461269598074   -0.31314652626763
H        -0.16013254116816    3.41938129496939   -1.08288307367121
H         0.94802736689592    7.09480025698701   -2.33855911574700
H         1.80419117301735    2.02883240208614   -0.55490634540669
H        -0.30614016404168    9.20549442808287   -2.59083600023878
H         3.07079470626094    2.42624630179164    1.52979019097846
H        -0.25958132420586   10.88099143075112   -0.77463079747400
H         2.37969590029678    4.23943208522763    3.05717489292850
H         1.01123255517797   10.43753120432874    1.27205246439798
H        -0.32052071837233    3.21164756694274    3.47195503355010
H         3.47346454325254   10.28653136772364    0.19707592005368
H        -2.13127325456869    2.03804671772580    4.63215444473003
H         5.46916330857830   11.70627002788687    0.11875018547898
H        -3.86226388999615    3.30798734793527    5.84839556484062
H         7.10388197624048   11.66339527334341    1.96266131847255
H        -3.77664003657740    5.77423463144930    5.88304101974912
H         6.72965537374115   10.18644670587543    3.90442088947545
H        -2.00396424547311    6.96120751079193    4.68313537477624
H         4.70562601169512    8.77109908601902    4.00123949845260
H         1.32463495508705   10.54140444957472    8.15647671620603
H        -1.10936175743756    7.74815720198946    6.67325293630487
H         2.53071707641418   10.62270505381356   10.27158774444320
H        -2.25858193725125    8.77915607441679    8.59190597942270
H         4.86699951478526    9.84691801498015   10.41674848516526
H        -1.14889671788918    8.85584236645394   10.79543915195473
H         6.00021942663411    8.97657513786619    8.40088114795861
H         1.10083206934921    7.88291606741240   11.07230521638267
H         4.78542821558400    8.87355598932653    6.25744867634237
H         2.25479858418488    6.86727546136477    9.17019076326386
H         4.51578249550154   11.45689529171789    6.14214004598265
H        -0.83145980550468    5.20086397452065    7.77129166732423
H         5.33821805977047   13.50464193921532    5.09877934719565
H        -1.42161289690469    2.84032199670860    8.05556452022673
H         4.30624401700956   14.36026265613417    3.02903661938596
H        -0.10188282223610    1.08084781688234    6.94148140831862
H         2.42153215980479   13.13556369431973    2.00290437593582
H         1.81462050127569    1.69978300301702    5.51220993749451
H         1.59210346302046   11.06630560056595    3.05210896695253
H         2.42570997617364    4.07202896344142    5.23685645869179

