54
CSD_code = NUWKIZ | q = 1 | S = 0 | Stoichiometry = C20H24F7OPRh(1+) | MND = 8
Rh       11.11971140461539    5.07686278192989   10.22896570221748
P        12.79695015233201    7.96751929813182   11.40065519804018
F        13.01456474807744    3.55438956578398   10.87974580368856
F        14.15939336620746    1.06793074990699   10.65605465711298
F        14.75295740425413    0.07939532185826    8.17509652981073
F        14.20812345144730    1.56412920904088    5.96203638644572
F        13.15045465945743    4.02957002079206    6.19508226766726
F        13.61802610472488    6.01262250511555    9.30961956219828
F        12.16402090233270    5.88195951811236    7.71205341067741
C         9.41189114418146    4.00876359023640   11.25367677598131
C         9.79984043164094    3.40677919290703    9.96771773822296
C         9.54247846325188    4.34290294193508    8.93084698217496
C         9.18520911232942    5.58161952827148    9.58292081495991
C         9.01272506807167    5.31843129859397   11.01695209955436
C         9.44004131486174    3.26175299283841   12.54078784980652
C        10.14410911921522    1.96645223955830    9.81007563217025
C         9.52791756267736    4.10453189415312    7.45973877802257
C         8.80415860137480    6.83727406193194    8.88859438568849
C         8.50047749702594    6.32708769823995   11.98536252802001
C        13.38935017422623    3.06400184222128    9.66735661826508
C        13.94064000906138    1.79810037039325    9.56816724232588
C        14.23348609988713    1.29079281535002    8.29920395528310
C        13.95323176536442    2.05412742344558    7.16742803598369
C        13.40692196095514    3.33378896210132    7.29396683544901
C        13.12118388417154    3.85917695275217    8.55256545923306
C        12.57604029468929    5.23668530780499    8.83688160958423
C        12.79870996021914    8.96240838866587    9.87521996462550
C        12.17362339991826    9.04925469782616   12.72814811802801
C        14.50457403242861    7.53043951242317   11.85337943031328
O        11.88281925786834    6.77122999377254   11.32391624572349
H         9.09435804431417    3.87998382091170   13.36386082946758
H        10.45138307507033    2.92275419037596   12.76901032129498
H         8.80313783121129    2.38008659440782   12.46910169799079
H        10.61578045971265    1.76657517536429    8.85061147501388
H         9.22507866279057    1.38019638713111    9.86417788971572
H        10.79600375703519    1.62367265516545   10.61168303452391
H        10.02614287763832    3.17498457481254    7.19933233044996
H         9.99932908395256    4.91950825428829    6.91525419989943
H         8.49112204057717    4.03966002946646    7.12786964816061
H         8.86526327690602    7.69053843410537    9.55926802798750
H         7.77529517644543    6.75035451789222    8.53499237746578
H         9.44001836725885    7.00902704613231    8.02145280657101
H         8.32679295946189    5.88048942733991   12.95992951919566
H         7.56635194908800    6.75085800384264   11.61943201867733
H         9.22072699498283    7.13720228612429   12.10367169118021
H        13.22669932712678    8.39463270142198    9.05436614951168
H        13.37699820139292    9.86861413332786   10.02396123447653
H        11.77034403742563    9.22258370353670    9.63070719672378
H        12.12670819715254    8.47908954281874   13.65309195946763
H        11.17466038689094    9.39600530902707   12.47393840939822
H        12.82849664578073    9.90422339356431   12.86132669333798
H        14.98846868487167    7.00183246613681   11.03797942744731
H        14.46947933878074    6.88403801194795   12.72828466916542
H        15.06782927706672    8.42870866477750   12.08637977579536

