64
CSD_code = NUWMEY | q = 0 | S = 0 | Stoichiometry = C24H34ClIrN3P | MND = 7
C         1.12269506875278    3.15131340148646    9.05074913374399
H         1.82935990172926    3.96642441989765    9.21093793456117
C         1.38265581317514    1.94656621410735    9.76037758385281
H         2.24796943581761    1.96396735327165   10.41829477494391
C         0.26250256677055    1.07227182078667   10.30002194615952
H         0.58739480127052    0.60547382852743   11.23174692816873
H        -0.60446273967829    1.69217552181354   10.53650402239819
C        -0.11099756230643   -0.02906752876956    9.29872548804344
H         0.52132117659541   -0.89919697494810    9.47885671747877
H        -1.15266768515148   -0.34369848879379    9.42989713194806
C         0.10421674963267    0.38794211417968    7.86277019390599
H         0.22195482417449   -0.46128253651995    7.19141148047183
C        -0.33040620800925    1.59151603295540    7.30247555888629
H        -0.53857733033021    1.57533764353022    6.23359932403372
C        -1.15476827729064    2.61498295589326    8.06261855131554
H        -1.79681330682084    2.08501669032257    8.76829741337460
H        -1.80996938239482    3.13227183579602    7.35922049729593
C        -0.28643972909444    3.64817670908652    8.79799155748929
H        -0.23368315624080    4.56161149391560    8.20419759907383
H        -0.74712777213154    3.91993016495832    9.75493761580009
C         4.53741941886282    1.95399033292646    8.81356048522653
H         4.00631326586038    1.50831952637575    9.63855165597886
C         5.89895084280480    2.13293043481609    8.90229786328107
H         6.42242914196133    1.85299690959790    9.80128847817226
C         6.56905997060473    2.66159582053947    7.80722173732091
H         7.63665110065017    2.81689057567467    7.82540160952223
C         5.84001211365252    2.95192242588415    6.67735259206697
H         6.32878406626452    3.31888995727236    5.78911951053774
C         4.45569813714112    2.74136853556286    6.65944489280393
C         4.33436711826563    3.80007151830331    4.51748865202437
C         4.70656534079082    3.34640811696507    3.25318436312382
H         4.59482405220417    2.31102189070302    2.98307105104355
C         5.25366789805865    4.25491735309708    2.36280476954531
H         5.55200486796689    3.93197959378484    1.37608119674696
C         5.42545019553199    5.57306704919437    2.75701712604769
H         5.84785594446064    6.30722867540195    2.09015315611317
C         5.04937926954323    5.91677288122159    4.04601837836262
H         5.17074432006981    6.92450325734505    4.42070992734152
C         1.14751106220892    3.76835401611242    4.78125971988309
H         0.11258580557927    3.44184025841383    4.94442485291844
C         1.41922345739818    4.94548738697055    5.71352252114640
H         1.42901247337562    4.60367412972363    6.74575369667544
H         0.65034702080067    5.70826174961717    5.60194460136366
H         2.38579464481557    5.39558225426113    5.49931203905432
C         1.27835017938320    4.18326844000952    3.31928605947712
H         0.97347058528722    3.38934728568406    2.64177360085977
H         2.29437155732168    4.48286055581692    3.07598161896986
H         0.62867389966030    5.03943942588556    3.13820976053672
C         2.23239085299997    1.19074961717234    3.90702443702596
H         2.44404520603021    1.78462565591545    3.01015155729251
C         3.31050632663186    0.13214171952507    4.10939489692823
H         4.30073151749657    0.57437818780027    4.20872169050395
H         3.32269217052115   -0.55986289574372    3.26843662108362
H         3.11770622596253   -0.43019831493743    5.02198845577731
C         0.86540961252566    0.52625296708782    3.76590467602405
H         0.07102114905169    1.26192499690565    3.64386375740291
H         0.65936502491438   -0.07014865548428    4.65263896464420
H         0.85424646021969   -0.13531230367788    2.90109771125206
N         3.80340010984272    2.27494786140172    7.74124070123801
N         3.75620598499450    2.94942821615861    5.48697540371179
N         4.52093498602770    5.05958050825741    4.89860157492591
P         2.15225839061480    2.30950204890405    5.40187027130726
Cl        3.04484373161365   -0.56316922346318    7.39624143194702
Ir        1.82836731030140    1.67503658559801    7.67038048074395

