69
CSD_code = NUWSIJ | q = 0 | S = 0 | Stoichiometry = C24H34BN6O2PW | MND = 6
W         1.91523424227835    8.06919923339301   11.82209201919436
P         5.40090609224010    8.23051975557890   10.46145011417960
O         1.78093836382937   11.17019219729364   11.43085810164981
O         4.33017207220609    8.07993057327493   13.85336796564550
N         1.01224485629891    8.11982127255492   13.84188388076544
N         0.16014180976726    7.15663566578609   14.22713802408436
N         1.70036801101917    5.91307672869532   11.91954978227255
N         0.70395367569052    5.33951320021134   12.61735112693641
N        -0.15831405701776    7.87112943301891   11.37874086470530
N        -0.98153392368549    7.04729012040377   12.04688119672557
C         3.88052500639865    8.22025022475532   11.40758527556385
C         1.79570598628023   10.02627611054568   11.61034429986168
C         3.79317311094991    8.15769261525185   12.78385665468005
C         2.17150081956741   10.07219273307992   14.88275951809459
C         1.28606939007132    8.87881161436824   14.89882892424206
C         0.58428584641262    8.38132830407921   16.00167267886928
C        -0.11819519777429    7.28676691878079   15.53884135504920
C        -1.02409746731595    6.37800274324565   16.28839879321265
C         3.66566730320650    5.18720628688918   10.58707582811827
C         2.47675419894472    4.93952691342393   11.44489178109229
C         1.97192043717429    3.70667738437786   11.86446492474639
C         0.84221821675026    4.00056224655350   12.60565885930449
C        -0.08728659027152    3.06180000093392   13.28521312109691
C        -0.19487533192546    9.27895441218373    9.34412314404418
C        -0.82968580746351    8.37197478524133   10.34008962038069
C        -2.13061940635714    7.86829014135415   10.35669742193262
C        -2.18837278436570    7.02498233346556   11.45415386458061
C        -3.33285919399445    6.20882788268570   11.93401430438511
C         5.75173698920018   10.08005120444169   10.40913900509577
C         4.76249433278729   10.81598640248541    9.50903281587167
C         5.06640464258235   12.31179987407956    9.49213560987979
C         5.04424895544570   12.88058006400289   10.90703445489189
C         6.06009307519995   12.15420849367688   11.78310230475521
C         5.74495670289744   10.66231259054133   11.81989079020417
B        -0.43296581048981    6.19194501258829   13.20507627980220
H         4.83218493988169    8.18851230899375    9.17096231771230
H        -1.27650703811130    5.51740278708271   13.67398042982162
H         1.94298346151907   10.70433795066510   15.73728778706015
H         2.03424132419629   10.64081497912827   13.96614625691567
H         3.21501336656235    9.76895779157304   14.94626122325366
H         0.59493643041539    8.76991084872652   16.99939772425379
H        -1.04481466593772    6.67192755630742   17.33410718377901
H        -2.03637719287409    6.42402128362342   15.89000650496444
H        -0.67959909773000    5.34790282607980   16.21871014521343
H         3.95702969861651    4.26646166806386   10.08692620331093
H         4.50988245988759    5.53515223582652   11.18730804886887
H         3.44619626027043    5.94955942323523    9.83490258675183
H         2.37513515565332    2.73756468832002   11.65216779919015
H         0.27039289305588    2.04367810767658   13.15777633848403
H        -0.14771970895798    3.28429411808092   14.34892283442104
H        -1.08980708807885    3.13726137238711   12.86693401497020
H        -0.71062127229618    9.20154003050946    8.38952042358719
H        -0.24393876073075   10.31655582869832    9.67550965081167
H         0.85872265879729    9.00744879309965    9.21092616637153
H        -2.91763884900961    8.08191677325783    9.66258405563403
H        -4.20829392410382    6.41803088640614   11.32539535976912
H        -3.55960996430402    6.43948259699063   12.97309389288093
H        -3.10361480619520    5.14646134102456   11.86608380741248
H         6.76133144174018   10.17902961898185    9.98787238810682
H         3.74786820888431   10.65128349547980    9.88001542613619
H         4.81802815526399   10.41965705580323    8.49102380703599
H         4.33030672339662   12.82595258119056    8.87040972419164
H         6.05278284154297   12.47594783456534    9.05009250163381
H         5.26750388582411   13.94934275354661   10.88156037625090
H         4.04578774774467   12.75329971283597   11.33011397258747
H         6.03765722069316   12.55814414628377   12.79711534701958
H         7.06496717408388   12.30826887482137   11.38150604823050
H         4.75436772443975   10.51908061328032   12.26339102058289
H         6.46861402930639   10.13368164422067   12.44579392685994

