95
CSD_code = NUWVOQ | q = 1 | S = 0 | Stoichiometry = C46H45OP2Ru(1+) | MND = 8
Ru        2.21344263631303    2.89344632719196    2.95963949184268
P         1.00647230724973    1.55872080639080    4.41068219832154
C         0.49300044143544    2.14561412484155    6.06280736986510
C         1.50618333065839    2.24114528914125    7.01712194844966
C         1.22803163762362    2.68660739507048    8.29478657280353
C        -0.06939704807642    3.04047952121363    8.63342719922132
C        -1.08011031776411    2.93909991851894    7.69335598949248
C        -0.80493346020402    2.49532938289022    6.41049793606090
C        -0.54388117375703    0.94337520232116    3.68761191066636
C        -1.47420312607959    1.89891960746081    3.28033645321012
C        -2.66797889451146    1.50850473451686    2.70430727784119
C        -2.93554524197421    0.16135424745004    2.51310893008335
C        -2.00501951038899   -0.78948288650702    2.89660869463774
C        -0.80994749819725   -0.40500781358067    3.48185593616646
C         1.90164915257800    0.05077686916976    4.89429966499472
C         1.36763620240858   -0.82215553433987    5.84175996742968
C         2.06217152773406   -1.96413496035572    6.19181066062776
C         3.28968006891701   -2.24138503407804    5.60729004242180
C         3.82688563405125   -1.37157957304394    4.67363682895302
C         3.13477914761923   -0.22668311261835    4.31793655600246
P         2.02110361795034    4.82412930895122    4.10644231762993
C         0.47716995190950    5.35381329873227    4.89258922756900
C        -0.61132120537985    5.40547087952466    4.02043249173715
C        -1.86090456108796    5.77268106302101    4.47907197864323
C        -2.03430253986497    6.08900530487371    5.81822932322244
C        -0.95846114199185    6.03681882346012    6.68765606639456
C         0.29700814809937    5.66863777804622    6.23312972619547
C         2.58390945251395    6.28645488465626    3.18436223362203
C         1.80254686153377    7.41368673267802    2.96250330615725
C         2.31010975550642    8.46404407823355    2.21573008803548
C         3.59010283945340    8.39766717565053    1.69207076232370
C         4.37500973402666    7.27575638296813    1.91488705471057
C         3.87255516256352    6.22332381767129    2.65378363186028
C         3.29433568622689    4.69203639089783    5.48895882922694
C         3.81588707590739    6.06141313498971    5.92056420444368
C         4.26932950933259    3.61977929543858    5.04430822019350
C         5.60703256100491    3.36500123274602    5.73586903173328
C         5.41171463053405    3.27471544912271    7.25374618959344
C         6.61284033499452    4.47292960331533    5.38932036902006
C         6.16111635993993    2.02646971050913    5.23018118464707
O         3.93776959338623    2.85478730214212    4.13845409209015
C         3.23943533138006    1.93298680626636    1.07125234684633
C         3.16509118732590    3.37229781229923    1.01234969471273
C         1.79788963202954    3.72834988963344    0.93210020735225
C         1.00185638952351    2.57189568186592    1.13505385719120
C         1.89436525412060    1.43038090423955    1.14271287498754
C         1.66058005689687    0.04558881599471    1.11896583439965
C         2.74000603434088   -0.80225358485059    1.05075650564047
C         4.05403339863213   -0.31213610229524    0.99674424928531
C         4.31799880382727    1.03744158742617    1.00379341431337
H         2.50897885096312    1.92980710566855    6.74592937587460
H         2.01650941753571    2.74907272372289    9.03071304171190
H        -0.29087804885102    3.38300291578674    9.63248606894468
H        -2.09309807346576    3.19977915159127    7.95964738586249
H        -1.60470542466409    2.40916969982161    5.69091416975566
H        -1.24131024932716    2.94814826074728    3.41531717575218
H        -3.38858787928000    2.25203303805318    2.39736594558361
H        -3.86494036710391   -0.14526799624880    2.05839893835792
H        -2.20738161414940   -1.83801991775749    2.73753134368451
H        -0.08640549096225   -1.15398168503073    3.76957744001022
H         0.41338808641595   -0.59801048481218    6.29938472017086
H         1.64732407147313   -2.64119766075270    6.92315474649074
H         3.82743621511475   -3.13507288148541    5.88468293004751
H         4.78501724639825   -1.58281040186928    4.22277084008299
H         3.55540909411537    0.46164257998310    3.59453596774750
H        -0.45045458749283    5.15581272138773    2.97687588528546
H        -2.69869060277658    5.81420981192382    3.79927570820144
H        -3.00859127834378    6.37672918561546    6.18197075863730
H        -1.09418706660009    6.28505861689084    7.72925459330545
H         1.11889823566457    5.62904724412246    6.93158448450755
H         0.80537764785162    7.47361012138112    3.37351535652472
H         1.70148978339902    9.33861865073890    2.04359754584243
H         3.97891014561145    9.21907289241117    1.11048201810001
H         5.37505664153503    7.22639190690338    1.51034106647455
H         4.47501443392038    5.33938945069125    2.83217840585060
H         2.72647801080662    4.23745295655814    6.31758918300140
H         2.97448693168672    6.74837469282668    6.01033332427294
H         4.49713043187479    6.47617184117288    5.18311569054615
H         4.31751563476415    6.02018209549271    6.88387808553871
H         6.37155566573629    3.07173163631943    7.72183562886111
H         4.73535618496288    2.46093050668917    7.50538606402749
H         5.02076626806669    4.19554354368880    7.67375389459850
H         7.60294964197689    4.16223528453395    5.71332868610371
H         6.37642096077239    5.40757945712837    5.88482212325267
H         6.64810570330607    4.64046020798124    4.31536230209288
H         7.10151946088404    1.80645622571104    5.72725494646341
H         6.33755029693838    2.06265511763431    4.15806151301675
H         5.46321925896028    1.21736500293711    5.43572349377426
H         3.99110583869640    4.02011187117162    0.75225378920676
H         1.42349702326258    4.72080139535438    0.71011573506764
H        -0.06613045620495    2.50872331559932    0.96686515310052
H         0.64846735397471   -0.33337949178720    1.12282571581055
H         2.58004737555260   -1.86902092288799    1.01849699978553
H         4.87041330634291   -1.01480716288527    0.92724163152908
H         5.33044219039105    1.40887940741392    0.92746918427505

