116
CSD_code = NUWVUW | q = 0 | S = 0 | Stoichiometry = C60H52OP2Ru | MND = 8
Ru        0.63065379115932    2.95555790377066    3.80316070932559
P         2.34664560613212    1.53683795589386    4.22576088076265
P         0.55150545363056    3.98002229726741    5.83555543628676
C         2.60858365276333    0.36108710878314    2.85380358060076
C         1.48998769949618   -0.37662034887925    2.46735521560927
C         1.57087901187030   -1.27631983242117    1.42261512080664
C         2.76570423516013   -1.42857590789308    0.73530256268519
C         3.87005317212359   -0.67465046220737    1.09362498169141
C         3.79725557304185    0.21840961075036    2.15012488290920
C         4.00265051157283    2.27881232950623    4.43383328677355
C         4.13581766856076    3.63817324998509    4.19094722085936
C         5.36394224156419    4.25884287445029    4.32887445306527
C         6.46701650135239    3.51930906009105    4.71856084581697
C         6.34051079219989    2.16056485107951    4.96748737355635
C         5.11503855910095    1.53778691100651    4.82632771640067
C         2.37849150027325    0.40920191464255    5.67128341026986
C         1.98914153802929   -0.92343640464751    5.63204130923090
C         2.32102301253212   -1.10473844418803    8.00706682011739
C         1.96315338858772   -1.67294576948068    6.79657223369859
C         2.71876921705857    0.22254545570718    8.05306834990162
C         2.74405946620947    0.97477149953584    6.89395922020812
C         1.87864522784410    4.55663451481441    6.93984135981100
C         2.08426225902133    4.07254282771925    8.22594453684303
C         3.15231105022717    4.53744114177939    8.97322440017801
C         4.01689507594538    5.48311101731009    8.44735807413971
C         3.81003928384798    5.97632032230077    7.16909408915449
C         2.74807089800155    5.51203941811905    6.41726458445321
C        -0.71435197262259    5.27662812872702    6.00716283249603
C        -0.42211590889219    6.57558283793014    6.40124033804049
C        -1.42764389518017    7.52675177805370    6.43985883079223
C        -2.72377699714435    7.19248736495575    6.08895729896551
C        -3.01880525918644    5.89617622527188    5.69504669287751
C        -2.01812728333768    4.94747757988643    5.64557390783013
C        -1.88629865258008   -1.11092625350196    3.70192530264069
C        -1.09816177072479   -1.88306427515062    4.55370250090969
C        -0.65931057530579   -3.13491517866874    4.16633845573827
C        -0.99223824532189   -3.63947544681946    2.92067513444145
C        -1.76314185181945   -2.87535642310975    2.05912788223183
C        -2.20536516024089   -1.62436630087843    2.44352891103867
C        -3.66432910179377    0.69580781602951    3.71076373344855
C        -3.96165500132899    2.05661687499824    3.60075863425966
C        -5.23911504623893    2.48325773168782    3.29948369482493
C        -6.25558054759740    1.56154557153527    3.10755241729619
C        -5.98056706295673    0.20932038391295    3.23096862696244
C        -4.70312668066706   -0.22106831338079    3.53222514457152
C        -0.62893862113100    1.88589859926812    5.17433602723968
C        -1.48627532798982    1.04896433784923    4.74199605722652
C        -2.31878996655936    0.24407291607961    4.07124507586990
C        -0.24387589129503    2.44649778479445    6.53222061570577
C        -1.17853320583076    2.72956097131953    7.68347338901973
O        -1.06101323636923    3.79242150831607    8.25151961389653
C        -2.18378789730856    1.68256979744350    8.14539785358713
C        -1.65467229147100    0.26364091288461    7.94531488050919
C        -3.46400074722847    1.90175522951756    7.32628342909566
C        -2.48800103112081    1.92049046676540    9.62799263763693
C         0.63483263030975    4.80122080973934    2.34196262328385
C        -0.68039335056388    4.28740722941482    2.64555093784160
C        -0.77163916719864    2.99435928286668    2.06622502122767
C         0.49501903623060    2.61198304168878    1.57981334516558
C         1.36750998129265    3.75924566685856    1.67251611938822
C         2.65725026225785    4.00991922336978    1.18447743459096
C         3.20358432322191    5.25923940934535    1.37277744549971
C         2.50166714012387    6.26716686658386    2.04856224086790
C         1.23209454540210    6.05567984343652    2.53715954270432
H         0.55137397806449   -0.21601186440747    2.98562041080995
H         0.70039674083953   -1.85008969113094    1.13990311537381
H         2.83128392384122   -2.12508592933056   -0.08780417402559
H         4.79587149328507   -0.77937124467785    0.54600933320834
H         4.66282989702422    0.80773208960690    2.41740332612069
H         3.25784832824815    4.19892006989680    3.89346116269397
H         5.45958840193445    5.31674286019978    4.13358080810277
H         7.42854909279945    3.99860647660721    4.83125403195252
H         7.20334711747187    1.58601680874216    5.27271081314683
H         5.01292508849332    0.47865270962205    5.02234797981265
H         1.71442493294090   -1.38087546118694    4.69355693584430
H         2.29610075589677   -1.69460408431585    8.91158971459387
H         1.66167290476042   -2.70954404208823    6.75779768956024
H         3.00817752315414    0.67210258029469    8.99220930249687
H         3.06132930204546    2.01061104198453    6.92151019573130
H         1.40305749701615    3.34879716801253    8.64717426937293
H         3.31041500638461    4.16136273021478    9.97382794758574
H         4.85018485751120    5.83924498777541    9.03522444163699
H         4.47897108000555    6.72028580567923    6.76130092619452
H         2.57674265362128    5.88799623444303    5.41609348332660
H         0.58363471338281    6.84301447514594    6.69131605920250
H        -1.19651795283467    8.53553243731994    6.75087734685939
H        -3.50463734604830    7.93807900581496    6.12439578498321
H        -4.03041479609365    5.62668359287590    5.42591920948164
H        -2.24007460386436    3.93348397132696    5.33884536078359
H        -0.83313269705861   -1.49660972315334    5.52710380063422
H        -0.05655917231176   -3.72492455407359    4.84222271863288
H        -0.64996816466042   -4.61912614768567    2.62047714419227
H        -2.01945966507973   -3.25667798202937    1.08031373997339
H        -2.79061551846658   -1.02716446845825    1.75825486983195
H        -3.17257375191268    2.78039450082444    3.74305297485564
H        -5.44378962903631    3.54100660867824    3.20997921670710
H        -7.25509401511182    1.89436274803689    2.86895408658148
H        -6.77038190958064   -0.51611432128081    3.09539592447319
H        -4.50783839637061   -1.27782144318391    3.64651775740271
H         0.56609982446038    1.81601577941726    6.93315436329045
H        -2.39004316322244   -0.45353602185763    8.30363596108739
H        -0.72954546526477    0.11241498650300    8.49951152817503
H        -1.46846310077487    0.06817546246026    6.89415190856143
H        -4.23646654898079    1.21359983530290    7.66265724942893
H        -3.28403516077477    1.72461656163606    6.27013114281569
H        -3.82451879547582    2.91992265449353    7.45712308383553
H        -3.27447892400338    1.24813701153978    9.96137874239658
H        -2.80928230069226    2.94656233892718    9.78623691858389
H        -1.59993528284976    1.74531665831284   10.23171650827095
H        -1.52110640238375    4.90870750548551    2.93041781083190
H        -1.67693736306976    2.41024506100786    1.96034935194988
H         0.69609491017331    1.74069842336730    0.96929159430407
H         3.19960037526464    3.23421723263347    0.65982454632911
H         4.19125594293833    5.47403413387067    0.99129911204358
H         2.96761231292119    7.23427324269845    2.17469999159642
H         0.68604891222240    6.84369209431405    3.04045519349714

