91
CSD_code = NUWWEH | q = 0 | S = 0 | Stoichiometry = C42H46P2Zr | MND = 12
C        11.42147416053981   -0.77214300683526    5.38942715078265
C        12.30655702716208   -1.04341383824777    6.61607062266182
C        10.56758062576035    0.46846268877249    5.62921851997935
P        10.40668258694779   -2.39492852167417    5.17135652284625
C         9.05378201014592   -1.95992577472779    4.01769064022904
C         9.26739528215257   -1.19174578441163    2.87705411185021
C         8.24507656240289   -0.98901569807669    1.96712183884140
C         7.00588265129107   -1.57378215235951    2.16314288762896
C         6.79997430063659   -2.38411466334547    3.26790907923336
C         7.81711352335204   -2.58465907900373    4.18093880124072
C         9.48627797133313   -2.36484272973965    6.76573483379395
C         8.38567304643647   -1.55390766486462    7.02801559264160
C         7.77708559155692   -1.58542146924540    8.26941663070854
C         8.25325669529042   -2.42558604195607    9.26300858644647
C         9.34113418461300   -3.24329350347696    9.00874450940408
C         9.95015998222300   -3.21258765749967    7.76747231810233
C        12.27698877328758   -0.64265414625738    4.15356986334331
C        12.25451483803988    0.38460480048254    3.17420244239141
C        13.06147223400726   -0.02123894095875    2.08791600957116
C        13.60049188738381   -1.28832063859024    2.39395388856533
C        13.11797284819031   -1.66914562926601    3.66211910011307
Zr       14.64346007417338    0.37190079501249    4.02725562589871
C        15.26878127208955    2.02713196518975    2.64426979381265
H        12.76355258426271   -2.03099524868656    6.54523544842265
H        11.71214111141566   -1.01633967799711    7.52904444972222
H        13.09711089346195   -0.28967695062864    6.68752572131052
H        10.01748949987675    0.37689654100614    6.56371379840778
H         9.85447753006274    0.61944361614614    4.82120847201223
H        11.20992793724441    1.34651016752245    5.69780993715359
H        10.23701345336143   -0.75463707490993    2.69700793693201
H         8.42163601793234   -0.37588910446931    1.09479239503896
H         6.20887690794271   -1.41261250592132    1.45198229530024
H         5.84373035394988   -2.86547862672571    3.41573410733969
H         7.65210442087485   -3.23028737093074    5.03313436618043
H         7.99357422595176   -0.90627115748585    6.25715426542459
H         6.92446149685148   -0.95008868050709    8.46330438932324
H         7.77299344571292   -2.44632346283328   10.23033813385832
H         9.71168827797958   -3.90696765181845    9.77670662867051
H        10.79543402989801   -3.85585325659898    7.56293231383254
H        11.63725165160256    1.27401137717002    3.18688544735764
H        13.13710050556105    0.48973736991367    1.13556591174056
H        14.13216487558419   -1.93113162585803    1.70419230084815
H        13.23708386859179   -2.64713416544085    4.11285461528681
H        15.58125723486141    1.73397044307475    1.63064800753950
H        16.08935761303369    2.63184062330780    3.06150798534782
H        14.42378119561937    2.72188965713500    2.50713686789736
C        17.00994998012463   -0.64265161849012    3.90095237127596
C        17.86547488015403   -0.77214463811892    2.66510214505681
C        16.98039099380001   -1.04341347386672    1.43845882937234
H        16.52339428904685   -2.03099432793367    1.50929128114095
H        17.57480559026748   -1.01633806308882    0.52548439794128
H        16.18983667195625   -0.28967700976360    1.36700370144901
C        18.71936093095745    0.46846705831634    2.42530924465345
H        19.26945369676143    0.37689985555882    1.49081516559378
H        19.43246380826288    0.61944890546523    3.23331937153874
H        18.07701380418990    1.34651528825265    2.35671530538890
P        18.88025807546246   -2.39493817407847    2.88316971056325
C        20.23316248395117   -1.95991321812293    4.03682423093597
C        20.01954661257398   -1.19173751636047    5.17746358522447
C        21.04186194599430   -0.98901007861408    6.08740050107940
C        22.28105518783124   -1.57377575312876    5.89138352785491
C        22.48696461490624   -2.38411051882008    4.78661951494579
C        21.46982876159641   -2.58465275144182    3.87358503004181
H        21.63484110299236   -3.23028194075490    3.02139051105059
H        23.44321130292252   -2.86546845829862    4.63879299758975
H        23.07806072386363   -1.41260228769095    6.60254383433484
H        20.86529901037361   -0.37588343813184    6.95972998988004
H        19.04992435583047   -0.75463903896821    5.35751525226002
C        19.80066600966494   -2.36484067154768    1.28879222129562
C        20.90127255272755   -1.55390529827490    1.02651287068168
C        21.50986244982681   -1.58542083337637   -0.21488684634136
C        21.03369175931132   -2.42558588911276   -1.20847904477939
C        19.94581192091851   -3.24329215788850   -0.95421719186069
C        19.33678439776385   -3.21258542505744    0.28705366071250
H        18.49150909181121   -3.85584886257454    0.49159349200786
H        19.57526039840398   -3.90696640311543   -1.72217986748472
H        21.51395829137910   -2.44632585970832   -2.17580721695262
H        22.36248811958257   -0.95009027551754   -0.40877510436216
H        21.29336967888053   -0.90626905619641    1.79737482151006
C        17.03241464900045    0.38461256396192    4.88031490088896
C        16.22545958962524   -0.02123288630715    5.96660249318491
C        15.68644628786103   -1.28831787481797    5.66056726609210
C        16.16896494624957   -1.66914254983427    4.39240208692395
H        17.64968253290261    1.27401644256294    4.86763503323182
H        16.14983672889758    0.48974074647835    6.91895483570854
H        15.15477965801904   -1.93113149803802    6.35033125966672
C        14.01817694575866    2.02713199541002    5.41025984629199
H        13.70568542685325    1.73397114184813    6.42387711095050
H        13.19759747326230    2.63182701546738    4.99301041588624
H        14.86316582397903    2.72190357616421    5.54739718134721
H        16.04985918296144   -2.64713328582715    3.94167011114649

