56
CSD_code = NUXLEZ | q = 0 | S = 0 | Stoichiometry = C13H26F6O6P2PdS2 | MND = 4
C        -6.08305123081695    1.76236259012182   15.27219633764929
H        -6.95002671752366    1.13913496748137   15.47996237181349
H        -5.38159861488189    1.17768655165469   14.66185197223920
H        -6.41774785338433    2.63259333530601   14.70844470078868
C        -5.40701414345086    2.17692826754933   16.57919944558597
H        -5.11603505544030    1.28180434806228   17.13228770385948
H        -6.06727077218330    2.79123839431791   17.19996103241386
C        -1.49315028994789    3.67597506336099   17.50349927163950
H        -1.51056178095176    4.69009261764089   17.10653727683967
H        -1.00147421180590    3.01828767695030   16.78307268505243
H        -0.90829602886892    3.67701902693623   18.41998991761182
C        -2.90490011504754    3.16378224921390   17.77810292170706
H        -3.43536335850034    3.80746396635856   18.48740633498105
H        -2.85465691631392    2.15178092742708   18.18202590293134
C        -4.37820183913164    4.84367851919855   15.97896830651782
H        -5.28664479649445    4.99104064425094   16.56796923878126
H        -3.60490253650089    5.49018266481312   16.39771481792289
C        -4.63742167370146    5.24858759281349   14.52959993447849
H        -5.31765735828628    4.53219355475042   14.06356699834798
H        -5.12903964097780    6.22525066873629   14.52644048210788
C        -3.35179327480992    5.33176263591931   13.70739307654134
H        -2.54844199311404    5.75426978173989   14.31249206909304
H        -3.50257734727561    5.98808082274169   12.84804439455915
C        -3.59042839156243    4.38190861361129   10.43394459286798
H        -4.25557968441644    4.14638742145210    9.60698408005401
H        -2.56918232535870    4.28600550416879   10.07711816666020
H        -3.76601588661266    5.41656520805298   10.72290546034213
C        -3.85764987824369    3.41113577427041   11.58186142138776
H        -3.66905845989997    2.38138984890795   11.25598106599149
H        -4.90383747200689    3.46895321543784   11.89787186784118
C        -0.16357107084131    3.88667804562441   13.71541736763025
H        -0.24411361897349    2.88974246125142   14.16647795589816
H        -0.41191119959241    4.63937084745877   14.46423885418748
H         0.86874748742505    4.03738278225171   13.40774772841564
C        -1.09679133831084    3.98312048364476   12.50831399352363
H        -0.85220325184790    3.19766479510586   11.78975437756753
H        -1.02551060466961    4.96224092361323   12.02359264425743
C        -1.14025190271758   -0.85469751924892   17.28753692143567
C        -1.94321290947022   -1.58461291814850   12.29495220756986
F        -1.21605791180222    0.02428235303344   18.30625430911279
F        -1.95914300763405   -1.86497624854216   17.58945974066989
F         0.10615369480310   -1.32900884818487   17.27223369366403
F        -0.62540410816237   -1.58814174734738   12.46267143769055
F        -2.49161207587643   -2.57060403886148   12.99105022198528
F        -2.14609081519855   -1.89481093077631   11.00123847559446
O        -0.67964888348851    1.10916909111698   15.64955204297274
O        -1.62947466767112   -0.96715922969402   14.69876117180868
O        -2.95836516057833    0.51583647919660   16.14131616966922
O        -1.66513507628028    1.01515648547835   13.05743092164542
O        -3.13244902479155    0.47797722562122   11.25841679302475
O        -3.83091388598716   -0.00783209560485   13.50628324403548
P        -3.85191849600919    3.08069874946387   16.20988552178217
P        -2.81734703817481    3.68152404690120   13.06816115349418
S        -1.64813409230221    0.04068213255569   15.70188141579476
S        -2.72080467971810    0.10836724501003   12.59225156384169
Pd       -2.79845671461457    2.05340697567586   14.56172622412023

