67
CSD_code = NUXMUO | q = 0 | S = 0 | Stoichiometry = C32H28MoO4P2 | MND = 6
Mo       12.11238106732783    8.48890163742658    9.28499093395264
P        14.25506712788205    8.03793779427411    8.36184818193343
P        11.84881112905595    6.18972741353872    8.74140890210563
O         9.29592198593585    8.63102661840524   10.54241782263947
O        12.67960076497836   11.44872273513034    9.96663480930366
O        13.25025339946196    7.65080258567610   12.04114322117718
O        10.84819059590686    9.37718764396485    6.59796813710373
C        10.33463956773453    8.60481276582719   10.06915980692986
C        12.46768471806616   10.35515365784285    9.71111051225181
C        12.83299143823471    7.95357146088809   11.02061824436565
C        11.34835749561114    9.04167440681106    7.56624643242926
C        13.51035243149737    5.38148774224106    8.67185628562598
C        14.40051534832062    6.25881849556498    7.80507728887684
C        15.90377192089603    5.92782297402264    7.84061537277163
C        16.65536976873678    7.27314098066383    8.09561724917935
C        16.39355660165629    8.18627235692513    6.91104758914559
C        15.14442971191660    8.67876848198447    6.91136246786170
C        15.85350319605855    7.90257514561263    9.24836069296571
C        16.34710092234954    5.19698038649087    6.57922434195432
C        18.12164351449293    7.07093276469191    8.44322992289209
C        17.44873307745136    8.49095422603486    5.90410650403865
C        14.45493767396313    9.52243111275430    5.93901612007947
C        13.80392749593748   10.66839984290762    6.38977110691415
C        13.10455772364499   11.46884247050832    5.50703587948780
C        13.03477131278264   11.12571348218255    4.16661411120131
C        13.67214079539848    9.98349247176741    3.71157001655496
C        14.38045672148151    9.18430639157594    4.59027389940330
C        11.09163971225739    5.61837373129740    7.20299820446930
C        11.30543593056616    6.11572343921767    5.92915690848206
C        10.61363172269271    5.56041028227837    4.86419994038750
C         9.71052145446440    4.52976863177204    5.07795977430800
C         9.47966179285241    4.03967246257957    6.35272326253434
C        10.16838037607476    4.58119698033946    7.42866078225465
C        10.05111253087689    4.21783009020358    8.83569789709905
C         9.22803560160159    3.25390862870749    9.40022500590431
C         9.24353681944552    3.06242058789222   10.77196579915348
C        10.06487260412993    3.82484178514728   11.58957395312800
C        10.88905744767312    4.79477060573482   11.04153753592401
C        10.88631971445900    4.98082032965727    9.67075849632325
H        13.88235550695854    5.33877623262243    9.70422175900485
H        13.42285828406303    4.36022698246457    8.28172967208990
H        14.02553494464745    6.21246706951468    6.77284059129141
H        16.10687251172260    5.28094374172837    8.70155840076806
H        16.23086157271564    8.88753967224744    9.53555708150049
H        15.79602265346192    7.26835683985975   10.13721720332167
H        17.40825081578061    4.96260896975943    6.61701986506127
H        16.15091873576212    5.79892570180499    5.69506769897636
H        15.79912520480599    4.26154590320063    6.48208006570072
H        18.21304452924586    6.40587765770659    9.29991794861091
H        18.58144037572503    8.02235611649699    8.70177012961240
H        18.67115019193371    6.63704473664546    7.61226330165552
H        18.31328755973800    8.93982050003222    6.39196484840040
H        17.07016639294443    9.18581379956911    5.15850682137402
H        17.78700590992816    7.58401255824133    5.40415715427108
H        13.87104160253097   10.93002156484219    7.43860654581744
H        12.60551297194941   12.35627411359925    5.86680615731939
H        12.47909367048539   11.74453967150872    3.47791249199713
H        13.61277229611721    9.71056608296453    2.66764052647067
H        14.86262858133825    8.28277064883906    4.23765939819890
H        11.99320355522928    6.93741681932798    5.76816310526204
H        10.77128077659010    5.93938678939514    3.86528999401334
H         9.17278993939119    4.10992917167999    4.24046780857891
H         8.76403864366524    3.24546849510620    6.50582777747041
H         8.57580805156670    2.65879563707857    8.77826638666687
H         8.60142242347421    2.31350313816180   11.21192861247398
H        10.05557249677725    3.66669921721487   12.65775078145873
H        11.52016658759123    5.40631656785908   11.67252445951243

