72
CSD_code = NUXMAW | q = 1 | S = 0 | Stoichiometry = C19H42F3O4P2PdS(1+) | MND = 4
C        -6.05873960689222   -0.03498915480780   14.89567616748607
H        -5.94312536461847   -1.11027465405208   14.77295415612382
H        -5.71777896687906    0.22296048117056   15.89573724879269
H        -5.42888587098473    0.45833944543826   14.14560425994429
C        -8.38479738997709   -0.24110122172568   15.82819476756875
H        -7.94842075023373   -0.08947499524066   16.81206026879040
H        -8.46091623482903   -1.31545689855708   15.67194915204774
H        -9.39513273959401    0.16260411228427   15.81444097775759
C        -8.01617494668863   -0.21558532259681   13.37725605381263
H        -9.09389664801084   -0.14239560190825   13.27949568105484
H        -7.75396508020210   -1.27133032240537   13.33453473045163
H        -7.53959298771952    0.27954071097701   12.53936985957728
C        -7.52763244258872    0.35238717188655   14.70775401931147
C       -10.10232396033441    3.46057831339074   14.95827577591422
H       -10.96744617256411    3.81295729034503   14.39994452869665
H        -9.86768235817390    4.22277511116803   15.69584461578446
H       -10.39390870984526    2.54759898312940   15.47230562748698
C        -8.33593817589215    4.53757415825062   13.51281078448098
H        -7.80219256420068    5.04206858892814   14.32365722240156
H        -9.11998027802774    5.20500848109235   13.15923100403552
H        -7.64113645429202    4.37024582603702   12.68595763879817
C        -9.52733884540795    2.49849321674928   12.74699361837389
H        -8.73653981942713    2.16674735840331   12.08343518255767
H       -10.15451708800467    3.19765322074508   12.19645139131360
H       -10.14782713912361    1.65436336260178   13.03284173863632
C        -8.95681228754236    3.21174177678010   13.97053360641079
C        -7.69155802449459    2.67248390348810   16.61064268928780
H        -8.16643530250308    3.64739468114808   16.66232736810107
H        -8.35507062702339    1.96593583809101   17.10759567466690
C        -6.34594527669348    2.73634946334692   17.32241453208899
H        -5.93923983822676    1.73215112991739   17.44554917319789
H        -6.45953124465760    3.17052502251204   18.31912400973153
C        -3.24312738428768    1.74807081889140   16.06060679137381
H        -3.85951393279970    0.94827246341414   16.46247175218963
H        -2.20800188173593    1.42107154029447   16.13586278370408
H        -3.47035807589406    1.88869099790520   14.99339706769932
C        -3.35587500044453    2.74282157581207   18.35592708816660
H        -2.37881220447828    2.31741562162726   18.57722934067807
H        -4.10456861053208    2.02008013572652   18.66788743986417
H        -3.46621733041205    3.63926725681804   18.95709520074665
C        -2.28649460194094    3.99631674712378   16.48009093038677
H        -2.26059532343538    4.88331805051038   17.10393113541345
H        -2.35738358637908    4.29657257050886   15.44058720675069
H        -1.33805473667314    3.48107627028603   16.61955269091207
C        -3.42485983516999    3.04735266915691   16.85871451117525
C        -4.68639444144008    5.93795968225818   18.09764233128864
H        -4.93681318019833    6.97167375272065   18.32954332341301
H        -3.60746562301491    5.87821079364014   18.02242061543930
H        -5.02229492966710    5.32395257160848   18.93042758976497
C        -4.88000056903779    6.34745895091557   15.60753973585845
H        -3.81073042234237    6.21272752035909   15.47193885546314
H        -5.07318852088126    7.40702319071150   15.76178250373068
H        -5.39388467274505    6.03036626196199   14.69117494024882
C        -6.87778902292801    5.84316176079018   16.99414251102904
H        -7.45351211958593    5.59416402538648   16.10813837535245
H        -6.99269507891411    6.91227081817840   17.16497461874035
H        -7.28845214626792    5.33173919226621   17.86110782655272
C        -5.39109736751730    5.53982008928986   16.80182513979845
C        -5.30920212614768    2.31083647029927   10.00526099902014
F        -6.42055130319304    2.77366221442792    9.43448624438316
F        -5.28970869542217    0.98618195813102    9.87171561939184
F        -4.25747607811399    2.82166684460982    9.37204609635643
O        -3.48608976618095    4.41917075563665   13.69031326312608
H        -3.83525225136972    5.01005739779068   13.00533171993183
H        -3.05992721573598    3.69215422268136   13.20752547196279
O        -6.50000892991270    2.13246278170438   12.31335475812928
O        -5.36649721502241    4.21131621036455   11.84554854870220
O        -4.08437794243329    2.19923921526569   12.35230086221694
P        -7.52731330624110    2.25937048355488   14.79862253065550
P        -5.12242089987015    3.72011279887370   16.33718277396575
S        -5.29517472441933    2.76981607306502   11.80700721262061
Pd       -5.54993575167681    3.18832776886612   14.20592806911360

