82
CSD_code = NUXMIE | q = 1 | S = 0 | Stoichiometry = C28H51P2Pd(1+) | MND = 5
C         0.54418475549467    5.49771112510501   14.10795591946349
H         0.56836316681746    6.03055342536220   15.05494118121975
H         1.12408238178969    4.58505827195779   14.10636532253774
C        -0.63959928680128    5.52544564865116   13.36468406006246
H        -0.83681212680198    4.73556421456009   12.63671756296991
C        -1.44284800413205    6.67293906118656   13.38019807354755
H        -2.34117854927934    6.63539204284323   12.76890426427165
C        -1.62336142507686    7.51525953933915   14.62114736831178
H        -0.68741343088285    7.84394470862312   15.07929562774279
H        -2.15915646499993    6.91921057919106   15.36433160007255
H        -2.23004943796260    8.39317944665525   14.41125004679581
C         3.56297505885796    5.30453810526640   10.54801952925318
H         2.47469361927342    5.26611860010758   10.47294584786197
H         3.95356376741942    4.33237991037642   10.25300731679464
H         3.93477848944967    6.04251652984426    9.84651809955643
C         3.52822926522601    4.38797642339785   12.81132978404796
H         4.11238401152854    3.52445832107652   12.49678055336129
H         2.48233202766229    4.16398049999512   12.60944411357090
H         3.67771966473300    4.51406688395204   13.87772540871572
C         5.47890450405747    5.76854787778742   12.11891516815730
H         5.78462509906717    5.83451588297530   13.15995383728924
H         5.84625847004366    6.63996376804002   11.58617873407007
H         5.96475124623219    4.89448711660470   11.68813815966990
C         3.96769317302448    5.60416175842309   11.99422210914470
C         3.64920420277433    6.74217538585417   15.23742312766802
H         3.71067665208130    7.18765365126088   16.22958061805581
H         4.54601180118379    6.14551774270157   15.09345896215600
H         2.78096358371797    6.09106417764896   15.21786643041359
C         4.87653671715536    8.61678078616571   14.19507451315288
H         5.69402725516519    8.02748440358893   13.79033712383853
H         5.12718835117210    8.85318616843278   15.22817651175282
H         4.81530561526458    9.55897158785495   13.65797408604261
C         2.42551621869263    8.81331812350908   14.58633521973042
H         2.38375960267171    9.66890928002922   13.91299617704156
H         2.58834285169528    9.19158853574232   15.59389817541921
H         1.45523550949308    8.29684685183347   14.56288751714870
C         3.55143708452549    7.85065306078038   14.18861539813320
C         3.73692564351076    8.51171829721318   11.43940799535802
H         3.27644571148985    9.42755417360664   11.82280867886636
H         4.79818807998643    8.53722705030400   11.68914455726039
C         3.61480964355062    8.48010739404149    9.94782862369448
C         4.72860595373458    8.09290606156467    9.20189630052250
H         5.63405242573455    7.80338588383296    9.71505463451699
C         4.71842804161602    8.08897063756836    7.82146577448277
H         5.59458387382094    7.77849111232972    7.27485006825034
C         3.58316221653038    8.51058077718088    7.15230899120676
H         3.55722191581841    8.53025074140885    6.07448763232931
C         2.49256435856126    8.94521057770453    7.87808461601121
H         1.63702107357586    9.32876381904878    7.34228844261503
C         2.47830979101016    8.92964694675828    9.27330969160357
C         1.31356025920193    9.55852480276468    9.97668872934705
H         0.77367718975510   10.16304517702880    9.24646937746845
H         1.69433020456042   10.23473083321083   10.74939523840967
C        -1.19426201565067    8.38283646896714    8.23475483963508
H        -2.00096683400663    9.07253513437628    8.47193232403536
H        -1.55350212662370    7.70930521460212    7.45832669954550
H        -0.36147638353371    8.94114033295136    7.82204512795875
C        -2.01849009717185    6.78170812788756    9.94184990674527
H        -2.37242170111301    6.14769110757882    9.12987821689802
H        -2.84118538733451    7.42327296492813   10.23781415791231
H        -1.74544361688211    6.12932419144984   10.76978865794255
C         0.27743128943486    6.52327847373461    9.12940771032728
H         0.54224694651202    5.98612572023927   10.05435747308390
H         1.17491793118693    6.97168655883880    8.71179491978298
H        -0.10464253890906    5.79740237671922    8.41410063868902
C        -0.79714817223427    7.56528844490833    9.45821217787800
C        -2.50605430836281    9.63337514798187   11.65036334809227
H        -3.02923746817377    9.54661432331425   10.70134398965154
H        -3.02168495632860   10.39072164159674   12.23930085116639
H        -2.57277803682277    8.69023105989672   12.18134260359042
C        -1.05908882057533   11.27689848637578   10.51453537262518
H        -1.78294361088557   11.99041706241301   10.90564451446345
H        -1.36432300828401   11.02626797225048    9.50211280055242
H        -0.09816701624254   11.78234641830549   10.48276242757405
C        -0.42323682290167   10.43368765479350   12.77815657990694
H         0.55388745512985   10.89297533766644   12.63625602389702
H        -0.30300271171832    9.54603115554685   13.40640969636874
H        -1.04958122334727   11.15012704092107   13.30538568577422
C        -1.05315974942239   10.05360586492227   11.43299220362294
P         2.99627223599027    7.16395613361193   12.49002611871580
P         0.00210485689980    8.57280607998784   10.85377825694094
Pd        0.61232408858643    7.04710972093640   12.57074377563420

