66
CSD_code = NUXNEZ | q = 0 | S = 0 | Stoichiometry = C31H28MoO4P2 | MND = 6
Mo        6.11358349960393    8.80468838612707   11.20984074501125
P         8.11322593620019    8.54410874426249    9.96249157508519
P         7.16891306003776    7.11328746801503   12.53707810281409
O         3.56406827040982    9.00691475206338   12.93986035335744
O         4.98147501826747   11.06552364881775    9.43519623446275
O         4.47836747808483    6.76196921905780    9.55111279235757
O         7.62490894942185   10.89691088029201   12.92560950773678
C         4.52128217433715    8.93235476192567   12.31897468624764
C         5.40065108607822   10.22271266147885   10.08355590586801
C         5.12216280404771    7.49439952565171   10.14302674600132
C         7.06637071445825   10.12451130589736   12.29448899606028
C         8.98473960453524    7.05883460696760   12.14318100931521
C         9.21875503402681    7.19408141708871   10.64766413264840
C        10.64307325910585    7.58857622093744   10.22901597458416
C        10.52361755464176    8.76632470574764    9.22528891743490
C         9.78069984483555    8.23399245149826    8.01151965026714
C         8.46713886746374    8.07785587585652    8.24077336489021
C         9.52575439034321    9.71008617283130    9.91225917299948
C        11.86910198284903    9.40948813731901    8.93178958478066
C        10.49391352457377    7.91055365389552    6.74480730785421
C         7.41251198139073    7.51820324610878    7.39933619305727
C         6.23252389858509    8.23988782293344    7.23588900496859
C         5.19374788878330    7.72287793935941    6.48580663482078
C         5.31585952456916    6.47234021798707    5.90240946438033
C         6.48218129918031    5.74407207696520    6.06744908435748
C         7.52737866126507    6.26137791414894    6.81071922192631
C         7.28033230870490    7.25543769108504   14.34582249543339
C         8.11462190730963    6.42940159495319   15.09914991816883
C         8.19799105948847    6.58952664627355   16.46898342465002
C         7.45137096962285    7.57088637133395   17.10312242619585
C         6.61684503005757    8.38993311334675   16.36270633506685
C         6.53216426648159    8.23309388799511   14.98970527980489
C         6.64982675804994    5.38627074906507   12.28878854743907
C         6.17884791371792    4.57997134094488   13.32023786517741
C         5.74037990914405    3.29464910226996   13.05277798981447
C         5.75953380653680    2.80390704553059   11.75859616521349
C         6.20172135762342    3.61055295829257   10.72200321981751
C         6.63334280591875    4.89623936791325   10.98385703522792
H         9.41439442451885    7.92002283084560   12.67460911126881
H         9.43890265234914    6.14199797432310   12.53536184468667
H         8.93232463519892    6.25459466328514   10.15939678988981
H        11.17718937090387    6.75210771693156    9.77634528784272
H        11.21643362180384    7.92431260746848   11.09554423320726
H         9.28728086769196   10.58930645033339    9.30792836556632
H         9.84656095511603   10.03336105889197   10.90623681152704
H        12.30405401945158    9.79742648367466    9.85087015825931
H        11.75273725969591   10.23701459173869    8.23553067417552
H        12.56133004403614    8.68726493602985    8.50535369835793
H        11.03136828529317    8.78264235116255    6.37525054044762
H         9.78911687144565    7.58500435945903    5.98401073671127
H        11.22394097354610    7.11779179222563    6.91203822060195
H         6.15076922833020    9.21902423348434    7.69072428880618
H         4.28440781163478    8.29229954134800    6.36379260369304
H         4.50064095971542    6.06276724955826    5.32465915149887
H         6.57632767689150    4.76533801959890    5.61898149407721
H         8.43000485670610    5.68390399768708    6.95572434093478
H         8.68940084742940    5.65224184234963   14.61411008551168
H         8.84624597418377    5.94613922195122   17.04634742426036
H         7.52057936901667    7.69312311275121   18.17388856889747
H         6.03119265838086    9.15321432945478   16.85311819401634
H         5.88204948908161    8.87238190317643   14.40702459951729
H         6.14437752520600    4.95911234360927   14.33183376485013
H         5.37621022934467    2.67624473583554   13.86031658579427
H         5.41615066570425    1.80054949071255   11.55472273710038
H         6.19715414750526    3.24208548322227    9.70654947345072
H         6.93967018030077    5.53542299677299   10.16363514944056

