94
CSD_code = NUXPAX | q = 0 | S = 0 | Stoichiometry = C30H57P2Si4Ta | MND = 5
Ta        2.97063399375464    4.46923812981696    0.92081580859962
P         2.52329723049549    6.44438881966743    2.56375955496387
P         3.35939555266582    2.72699404900216   -1.00528140040026
Si        3.32657403144696    7.16811484408048   -1.42475500472060
Si        0.17640019977804    2.80860083839258    2.50164883610732
Si        6.47592160562459    3.98534449218611    1.90850540218930
Si        3.56171290538310    2.66610340323987    3.02120930125407
C         4.63670302569145    3.79117351899068    1.95631315872139
C         1.95486761641405    3.21094250312937    2.20186632360290
C         2.20155617827006    5.80621571645986   -0.75959957463719
C         2.46555707962518    5.99383734079957    4.33788085337862
C         3.64351131993131    7.90330249187223    2.64917288224174
C         0.88379860370192    7.25700564583007    2.37320765487211
C         1.81534275325867    1.82394692618496   -1.42452958741562
C         3.90474850436502    3.25575603117488   -2.68485123442566
C         4.53793910561063    1.34988663986243   -0.72311470495292
C         7.44151962829186    2.58390842328914    2.78403283143754
C         7.06694528818681    5.64390779245571    2.69158221952659
C         7.07326595455504    4.01885749258503    0.07858744886342
C        -0.23901990921587    0.94560431533356    2.69654217929712
C        -0.54503902184257    3.64785256602125    4.07675195782020
C        -0.83038212460258    3.47760160533156    1.00550786731848
C         5.07386858212245    7.09309311696619   -0.63167347422736
C         2.60129700018721    8.91608372783120   -1.09172850387481
C         3.58835204278187    7.09419535112657   -3.32390790040784
C         3.67776868392513    2.92671584693417    4.90504729029545
C         2.74719318364164    2.33254045846030    5.74761830773866
C         2.82772899370339    2.47681475494050    7.12099349081733
C         3.85565539837928    3.21837352913349    7.67940048182559
C         4.79883512762793    3.80831106278146    6.85523276877866
C         4.70459051522334    3.66095298072774    5.48206545693631
C         3.85138320029129    0.78768187348184    2.87467091559617
C         4.81677224303723    0.15203222775025    3.64452350350558
C         5.02265713508201   -1.21298417467050    3.55179801987316
C         4.25475479292976   -1.97300017744294    2.68503761892003
C         3.27832466844560   -1.35839907154805    1.91922479577286
C         3.08525480618294    0.00843158900376    2.01785248684212
H         1.88074472057654    5.18410366860435   -1.60698545367883
H         1.27527499279554    6.28172359325831   -0.40885238171065
H         3.45181121550706    5.66048752100145    4.64982302399064
H         1.77466535228491    5.16610412597432    4.46930772398051
H         2.15393032874684    6.84593311773108    4.94128495010131
H         3.70951513265564    8.37877678807508    1.67437241122265
H         4.63343177342793    7.55582278648159    2.93655409491949
H         3.27993147634032    8.61971485363308    3.38500766804273
H         0.84529583372164    7.78772992656073    1.42464140545879
H         0.70236490484643    7.95637919598829    3.18861580663714
H         0.11754763320103    6.48421321259601    2.37433715117337
H         1.08360919228146    2.53295452740698   -1.80724728348976
H         1.41723613090204    1.37975856843399   -0.51539165053383
H         2.00098358188749    1.05007273504772   -2.16837738314373
H         3.20609421560760    3.98196537997268   -3.09189658161772
H         3.96418088679851    2.39385708688238   -3.34853789187816
H         4.88491699983115    3.72117019074970   -2.60946994041554
H         5.53961887980956    1.76354806698172   -0.64667912896389
H         4.49343320365666    0.63182470964844   -1.54134771219270
H         4.30118993620603    0.85817386748885    0.21676163114790
H         8.51215476917938    2.66899128688229    2.62046012937149
H         7.12526562352572    1.61153353685631    2.41991236535999
H         7.27045573292848    2.60100467718795    3.85513407610589
H         8.14773900629316    5.66137115870237    2.79957101620195
H         6.63884652004462    5.80025335742503    3.67730160477486
H         6.78737177684859    6.49097566207801    2.07304041762023
H         7.51842290771208    3.07292712090736   -0.21548761927085
H         7.81749982976891    4.79169023893401   -0.08491754426030
H         6.23647965933934    4.21862119654721   -0.58546653640345
H         0.43605292455513    0.47116714327838    3.40149162871724
H        -0.15590797981629    0.40857397512004    1.75626577670874
H        -1.25206800478873    0.80512267642175    3.06271928466754
H         0.05016842416232    3.41155608894025    4.95318606575164
H        -1.55940202473318    3.30978049801550    4.26980793639858
H        -0.57567793405389    4.72915484797857    3.98113277024824
H        -1.80959462284094    3.83630387779458    1.30797977856091
H        -0.98681178363805    2.71000605252210    0.25400982763236
H        -0.30780300404295    4.30295829710026    0.52793310027672
H         5.06362724857969    6.59021447540244    0.33286490229439
H         5.49039370587183    8.08663251703177   -0.48845477137876
H         5.76418543463393    6.55084640398379   -1.27047209205180
H         2.34613631091011    9.06815861787914   -0.04717870043901
H         1.69676963557828    9.07325121649604   -1.67123021127260
H         3.30615104470670    9.69315287597148   -1.37235846937888
H         2.64240714878921    7.03969471180290   -3.85454474179295
H         4.18122520090454    6.23355123160943   -3.61726346209572
H         4.10749859146344    7.98071180999778   -3.67496770121302
H         1.95069903699777    1.74431642381159    5.31436274385032
H         2.09310122741939    2.00742916774829    7.76093955398015
H         3.92487188138356    3.33043534798555    8.75226479352405
H         5.60932388619085    4.38056387785799    7.28619862741407
H         5.44370002423327    4.11502514435002    4.83771857073087
H         5.40849591244476    0.73684936991394    4.33345026742115
H         5.77982191485390   -1.68961642933292    4.15906072464367
H         4.41107457004683   -3.04015287472401    2.61325444957590
H         2.66640627504869   -1.94766414007050    1.24959825640812
H         2.31425684464646    0.49376795644165    1.43705468941990

