76
CSD_code = NUXQAA | q = 0 | S = 0 | Stoichiometry = C31H36BMnN2O5 | MND = 6
Mn        5.58521070153044    7.44629843387606   14.70964692515738
C         5.56804068192857    7.48927677778211   12.91691276336001
O         5.50047181581618    7.58925819395388   11.77854880856913
C         4.66904170618153    5.90125844933913   14.70987127399178
O         4.07175989902660    4.92087400206737   14.70941544629518
C         4.29121959655589    8.67910545981455   14.71068472926131
O         3.46269262840824    9.46600189777087   14.71150544416431
C         7.08647674165851    8.42769444637274   14.70920079173940
O         8.04817595121912    9.05043891806336   14.70932693064079
B         7.09697525464357    5.65448200862487   14.70954298062994
N         7.65367910524821    4.98532243299078   13.58284850003372
C         8.49221801933601    3.98159151742918   14.03679897262422
C         7.54315441187531    5.20804742320151   12.18224985783689
C         8.41545349343282    6.11101452777224   11.56369176443930
C         9.45807442473156    6.86196846090003   12.35868182186329
C        10.82521003255551    6.19511311179788   12.17986935949988
C         9.52605943828113    8.33824877539846   11.96491967613119
C         8.32846529451951    6.27929055888479   10.18887897580328
C         7.39953105857270    5.57777456754071    9.44526284705415
C         6.54478228520146    4.69006641661820   10.06761113746971
C         6.60194084987134    4.48897234214500   11.44019108249267
C         5.67525938282198    3.49388487917152   12.09783277954632
C         6.06890577227109    2.06779544698149   11.70378967036462
C         4.21542996449484    3.77083562571909   11.73336834695747
H         9.01917421822198    3.34669209332110   13.35196557628259
H         9.19110608932030    6.80837717625308   13.41910386408269
H        11.58234780316728    6.73491956279241   12.74428113164661
H        10.79832562021078    5.16739613895641   12.53517423390675
H        11.11194862392294    6.18999893923714   11.13045315373880
H        10.11834628351511    8.88838102757273   12.69256083668152
H         8.52858498930532    8.77253195269646   11.93462852189096
H         9.98784087912458    8.46696251548028   10.98934638931332
H         8.99669799316360    6.96431383884759    9.69111239714319
H         7.34457789089723    5.72143925858308    8.37627369017580
H         5.82646678953103    4.14251311908473    9.47727572543330
H         5.77685817723748    3.58424649828866   13.18357357621641
H         5.40731644288519    1.35037156605901   12.18408888769621
H         7.09028804679291    1.85516559908564   12.01224153577360
H         6.00093535793741    1.93375448757659   10.62665930768853
H         3.55645102302931    3.16204893499967   12.34809900025168
H         3.97209264082347    4.81850877506508   11.90154251734674
H         4.01889371262222    3.53743162010878   10.69009557126188
N         7.65349297728106    4.98517503546412   15.83624749456365
C         8.49208713798130    3.98148595965118   15.38231169712775
C         7.54294294832948    5.20790453843659   17.23684228343105
C         8.41516020647475    6.11099312594939   17.85533734396295
C         9.45781497340941    6.86184611303594   17.06029928409943
C        10.82492537045198    6.19495195305262   17.23915560259041
C         9.52588078710532    8.33815651321882   17.45392938959371
C         8.32812948780503    6.27940792009691   19.23012399282293
C         7.39921639575377    5.57791529027239   19.97378847615848
C         6.54456137878570    4.69006641861288   19.35151092677761
C         6.60179189180715    4.48880814405485   17.97895244762407
C         5.67522165003571    3.49354967449314   17.32141578701323
C         6.06887669527953    2.06761294280481   17.71600226178124
C         4.21531951518405    3.77054382774479   17.68557610598540
H         9.01893379834128    3.34651501715814   16.06716618211248
H         9.19085624312309    6.80818095543814   15.99987848231771
H        11.58212863829837    6.73464966315661   16.67472632084771
H        10.79796563565540    5.16721071143816   16.88392641024452
H        11.11163034356381    6.18988624198526   18.28858002701614
H        10.11810955022780    8.88823163021689   16.72619924666786
H         8.52841736941131    8.77245007370300   17.48425662440835
H         9.98773087040901    8.46695445243803   18.42945734792814
H         8.99637260958435    6.96445529752732   19.72784533102700
H         7.34418916365401    5.72172924855543   21.04275397555852
H         5.82619219433229    4.14260349620853   19.94186506673592
H         5.77701439248553    3.58360477000767   16.23566465158154
H         5.40737211422544    1.35002455056382   17.23583512575689
H         7.09031036656271    1.85492110128852   17.40775821344182
H         6.00076546327871    1.93390069018108   18.79316814745725
H         3.55645602769241    3.16163130900234   17.07084420096791
H         3.97200362586536    4.81818298459554   17.51715617298989
H         4.01859759007533    3.53734771491664   18.72886223501856
C         5.56845100954591    7.48917891282685   16.50232967181020
O         5.50130048609344    7.58935594367560   17.64070667012563

