113
CSD_code = NUXRUT | q = 0 | S = 0 | Stoichiometry = C42H62O4PdS4 | MND = 4
Pd        0.77125714635805    5.40567735764840    6.54770148210067
S         0.57107096958731    3.74608603662355    5.02761600212874
S         2.00360595598799    1.42284466991296    3.88805254092191
S        -1.34715125955501    6.08183175030795    6.13359987781015
S        -3.41184976460114    7.97983176605871    7.03640108389806
O         2.70147434874789    4.87909442266376    7.01171355152293
O         8.43802344433329    4.11071509807184    9.27653958277162
O         1.07390453137145    6.88212119271838    7.94014455549334
O         2.94906363433382   10.94409156552336   12.30585913636748
C         1.99005111362137    2.81142093091745    4.97317732766351
C         3.16991162329482    2.96490260085290    5.67524528193513
C         3.47473644263677    3.96120202807931    6.62220987909145
C        -1.76663993408697    7.36686633442921    7.16515527292996
C        -1.00465006211083    8.02662251348222    8.10991978866282
C         0.34344281981302    7.78399505884830    8.43644538403034
C         4.81214158236042    3.94029502368174    7.26145303232111
C         5.94894877140497    3.41389233808732    6.65785282831711
C         7.17550946624332    3.45330657474163    7.29536527579381
C         7.29123575112802    4.02142323891432    8.56180435801528
C         6.15211806140146    4.55936225240118    9.16927432942716
C         4.93994360558119    4.52534197808431    8.52487861182423
C         9.63915063007809    3.60633455063048    8.72702447219345
C        10.75142157131155    3.86223099254848    9.73809451448904
C        12.10219050614745    3.36163464192705    9.23575797650826
C        13.21446617258151    3.62809081787368   10.24712538259697
C        14.57329592298463    3.14118407803517    9.74958570825142
C        15.67499126310269    3.40141027421558   10.76951418506565
C         0.38877688767540    1.45944834153138    3.04753856224424
C         0.35993317234745    2.46567271296924    1.90735245083194
C        -1.04720913257736    2.64885472528483    1.33940524120937
C        -1.59563641591069    1.39705470145632    0.65837256032998
C        -2.94557746485223    1.65978406722601   -0.00553811784966
C        -3.49780953675459    0.41088393348718   -0.68141532689414
C         0.98930487075023    8.63217459279810    9.46594259972594
C         2.11846810078748    8.12433914009188   10.10655669976115
C         2.79705690680336    8.85194659043699   11.06225527761680
C         2.36177166927758   10.13293871822512   11.39433789941547
C         1.23709634280361   10.65383497548800   10.74627604394766
C         0.56174096226986    9.91843732707081    9.79953395680012
C         4.12127257637876   10.50217492055805   12.96238747261151
C         4.59938455171691   11.62489787212331   13.87620905469450
C         5.88095063410090   11.24230339208338   14.61089558477943
C         6.37358029112768   12.36623957374679   15.51892524867501
C         7.66397731762145   11.99237248277890   16.24471789698948
C         8.14977686977606   13.11622565783615   17.15153325251771
C        -4.16290276782167    6.96411865067787    5.71803212634983
C        -5.59472823350899    7.41426818323659    5.48194101890360
C        -6.24987404483783    6.59463314077188    4.37198032723351
C        -7.69010012939965    7.03311005176765    4.11921302843939
C        -8.35224710548386    6.21788542010697    3.01093162871088
C        -9.78765134716258    6.66394710402312    2.76167721674010
H         3.92264051135650    2.21442948685897    5.48264111654564
H        -1.52031972104377    8.80116080370986    8.65789852318509
H         5.89558933199316    2.99143461371936    5.66624463094812
H         8.03771499359292    3.04356285810564    6.79300887142571
H         6.25521308984168    5.00086941113563   10.14793094277434
H         4.06075537958139    4.94704880370777    8.98806874553011
H         9.54488542701959    2.52898915492244    8.53193095132756
H         9.86622903563678    4.11541784691854    7.77996098454792
H        10.49239883399884    3.36409490677127   10.67383243724281
H        10.80062176429630    4.93445523377322    9.93536638091795
H        12.04161892212137    2.28858131557666    9.03868435647989
H        12.34492308517351    3.85715328324386    8.29256758565631
H        12.97448685515257    3.12661787342280   11.18739227453383
H        13.26850156455230    4.70020382346299   10.44931090242076
H        14.81762757568796    3.64881566404206    8.81369658333757
H        14.51818390100334    2.07056031610992    9.53997278425829
H        16.63369845961913    3.04898548298045   10.39660659816407
H        15.45955223281087    2.88652970670201   11.70324071372897
H        15.75801626553391    4.46583005440222   10.97801665206534
H        -0.36342324277430    1.69099526660672    3.80084583746259
H         0.25166829999698    0.44042444702973    2.68893021810289
H         0.70939637583141    3.43030566903482    2.28015859139091
H         1.04227570840699    2.13956209923241    1.11952934620482
H        -1.01921336824077    3.46262369775158    0.61130194332618
H        -1.71869580228148    2.95181518502458    2.14567552194050
H        -0.88411860741663    1.05558672557050   -0.09745823061246
H        -1.71303119440656    0.59706341436796    1.39166535211996
H        -2.83468160970938    2.45428712220952   -0.74706081770411
H        -3.65460840937591    2.00872164281928    0.74858536482358
H        -4.45526513775450    0.62107869847632   -1.15229905578153
H        -3.64074869132310   -0.38540684283997    0.04596894153636
H        -2.81018462157123    0.05545257214040   -1.44593708936641
H         2.45911811737350    7.13497414096799    9.84006654137133
H         3.66134854996042    8.41674864659588   11.53855096253308
H         0.91901480713883   11.65176887616510   11.00403244025928
H        -0.28413875834371   10.36348355188066    9.29951402398699
H         3.90774009571311    9.60012739557412   13.55279025337593
H         4.89968948129748   10.26207297039522   12.22488353007694
H         3.80966805412670   11.85346970920833   14.59366250254214
H         4.76769317565972   12.51754909769694   13.27142588538707
H         6.65793994900278   11.00149040656844   13.88120635803969
H         5.70198006009529   10.34593122030577   15.20969216741271
H         6.54417620971314   13.26434054869547   14.92105055090145
H         5.60113849719937   12.60112699110533   16.25457899310762
H         8.43710061580971   11.76038924966115   15.50860975608886
H         7.49488826944928   11.09259205722651   16.84068309266127
H         9.06921296044873   12.83054915285125   17.65707742166268
H         7.40104348556904   13.34819331813662   17.90577623458404
H         8.34182557814517   14.01706076939147   16.57275787357538
H        -4.11831981911393    5.92356811368887    6.03926112288805
H        -3.55340298730941    7.08856077721574    4.82307346464688
H        -5.60102131874400    8.47196084202328    5.21038873711272
H        -6.16591372638289    7.30562529548426    6.40625289880965
H        -5.67063755031321    6.70437809792110    3.45233884000944
H        -6.23526005705132    5.53752789492391    4.64682354116996
H        -7.70258641329700    8.09046663157017    3.84486521888660
H        -8.26755220322263    6.92448236908424    5.04017223210630
H        -7.77387706766213    6.32429701642179    2.09034300243725
H        -8.34308195238304    5.16080421239863    3.28624785325105
H       -10.24206045615167    6.07056177349990    1.97172271110364
H        -9.81575092960820    7.71014217924879    2.46463918499251
H       -10.38470116353650    6.54934999417164    3.66386152065480

