66
CSD_code = NUXWUA | q = 0 | S = 0 | Stoichiometry = C28H32N4OZn | MND = 5
C         3.65280040091964    0.23006883231548    1.89548404771045
C         2.82734580664904   -0.18695671703956    0.81903216422580
H         3.12985871744631   -0.83021321671328    0.01521802220759
C         1.60774917525286    0.39081976130985    1.02563597436781
H         0.73633043731882    0.29183482304261    0.40746548902887
C         1.71228302044841    1.14807903223825    2.22177089824871
C         0.76654037388957    2.68919069002870    4.02192788248138
C        -0.27740274171385    3.45050739122996    4.61179720578127
H        -1.28188311275748    3.54340971847781    4.24689405334302
C         0.24642546222093    4.03677358585580    5.72776820666748
H        -0.24218331019152    4.68342402154471    6.43107451316757
C         1.60128927608104    3.61816738633227    5.79794117814823
C         3.79381367866940    3.60055778917848    6.96520766155082
C         4.61179371415449    4.00053092197822    8.05384705956322
H         4.30784451335567    4.64361854232320    8.85729639020137
C         5.82366365340908    3.40111238912862    7.86210051089718
H         6.68684391035455    3.47751122543358    8.49450729901909
C         5.72250592472772    2.65133511623941    6.66080729797929
C         6.67017943258878    1.11126343907268    4.85954514644036
C         7.71091484854041    0.34558448125815    4.27366665656306
H         8.70881421700464    0.23091832757637    4.65098382703574
C         7.19403348950794   -0.21776097009995    3.14182924981675
H         7.68393906244626   -0.86296778550955    2.43821206258896
C         5.84594214245963    0.21618238939831    3.06119171099549
C         0.54660256195643    1.91918600080445    2.75834269694634
C         2.47704773596394    3.97998097382390    6.80052558202304
H         2.07568903807259    4.63435599558938    7.56481833415434
C         6.88279440479878    1.86547684751152    6.13569036133817
C         4.97253476119675   -0.13771920171254    2.05308432928329
H         5.37571422946002   -0.78929578906933    1.28731629192149
C         0.10711731863583    2.93060581590077    1.66611537695520
H        -0.07141130599400    2.39306826335572    0.73477848282775
H        -0.83213226067304    3.39844373527576    1.96444371228498
C         1.16015902693285    4.00777364678764    1.43447450059756
H         1.26020904565132    4.63501278727902    2.31844932274731
H         0.87655629290392    4.64031030916897    0.59595355359849
H         2.12511319809340    3.55403906188590    1.21860637543494
C        -0.60335731093975    0.90943556474971    3.01490724512518
H        -1.49507765403077    1.45277158767846    3.33014346144083
H        -0.84105764126583    0.39428111882978    2.08346040245725
C        -0.22998847985139   -0.11324386753781    4.08059478277624
H         0.64860221162093   -0.67784653456645    3.77641230387772
H        -1.05093629263280   -0.80890355541678    4.24124255109954
H        -0.00612330810691    0.38222815621387    5.02284012868217
C         7.28297986572179    0.83455730969035    7.22460286678578
H         8.17950305725324    0.30404730583823    6.90147416558079
H         7.52453751199676    1.36307484422663    8.14773307065585
C         6.16771790187096   -0.16822242380333    7.49145302180453
H         5.26914847968682    0.34194228842270    7.83146994653027
H         6.47359658823002   -0.87866901562397    8.25653275546397
H         5.92405650388709   -0.71797680372000    6.58506268071316
C         8.05865585568903    2.85359411456583    5.91363139206853
H         8.32040022250364    3.32175677290929    6.86331180342351
H         8.93009346811110    2.29854585266696    5.56632705737833
C         7.71085775643994    3.93376884049181    4.89595268005570
H         7.40161380469600    3.48021623831702    3.95601521843849
H         8.57458293007121    4.56757163559355    4.70643477205177
H         6.90430924124905    4.56084153461065    5.27374891579961
N         2.93168951847483    1.05000479326480    2.74071202672030
N         1.88850651404006    2.79324375206151    4.72653474707920
N         4.51296238758423    2.77450740585272    6.12230237424012
N         5.55733165728328    1.03369743718035    4.13571025134058
Zn        3.75947900436166    1.97946002999253    4.35198147796361
O         4.40587048928055    3.87142458484527    3.27215555096154
H         3.67190269676558    4.49183516505955    3.31319086880711
H         5.13180688022898    4.24642624640657    3.78155805253503

