51
CSD_code = NUXWUY | q = 0 | S = 0 | Stoichiometry = C19H25Cl3O3Ti | MND = 6
C         5.82132736834155    4.60320265938905    7.76474700325276
C         5.64684801281092   -0.56432237333899    6.32603758592742
C         4.47393660467149    2.67776908086597    7.67095427174947
C         4.51619385069646    1.14273046839312    7.50869176321719
C         3.70283509116562    2.98375322497620    8.93572612982437
C         4.32727990610008    2.80999609746108   10.16598748635070
C         3.62594650005964    3.04155296584880   11.33552288787009
C         2.29828428003940    3.43388474729636   11.28231281088207
C         1.67378351017834    3.60151972267934   10.05785007099506
C         2.37436142238192    3.38040059943795    8.88466819755012
C         3.11743942723336    0.66493033992884    7.19178677669829
C         2.62255545983235    0.83856255853859    5.90398594256660
C         1.33160865975881    0.44506165347764    5.60080451172070
C         0.52715336514568   -0.11022945723659    6.58264740071406
C         1.01681365491421   -0.27748168893633    7.86703665856253
C         2.31144937424244    0.10557855578016    8.17271867940491
C         9.16758319215439    0.69193510657780    4.89294308884430
C        10.16733775032096    0.42046426265881    6.02392675962060
C         8.93028666318572   -0.55915833505785    4.03828014650900
Cl        8.65609008843061    3.65088781457794    6.73678127007797
Cl        7.57264288577017    1.01296429034577    8.43065920527911
Cl        5.95332951752421    3.18173670857573    4.82528677862621
O         5.81204891834468    3.17547172847162    7.73190862391702
O         5.42508297422790    0.83406660497539    6.45324768573885
O         7.97946254399109    1.13198929360240    5.44393409939821
Ti        7.11795873617469    2.10060577449797    6.47247565154442
H         3.97756312762487    3.11314333155450    6.78684629110578
H         4.88978653033364    0.69271546795260    8.44445289399328
H         5.36330279583934    2.49953088258892   10.19679133895143
H         4.11483084458820    2.91106455131583   12.28902332454470
H         1.75029566225512    3.60966940163989   12.19578188006558
H         0.63951224268705    3.90738227130938   10.01448049891794
H         1.89037890144227    3.51032571426751    7.92777000555105
H         2.69628533823775   -0.02238270097113    9.17378924332359
H         0.39082845156369   -0.70859341167837    8.63338507818906
H        -0.48208881020826   -0.41222321727538    6.34649375137556
H         0.95150843902365    0.57709248375890    4.59922389549057
H         3.25795340832962    1.27947382321286    5.14749010921727
H         6.26621053126966   -0.69796146330956    5.43653003327138
H         4.69195537929106   -1.08676712077709    6.19874985584157
H         6.17194742744368   -0.94826286454476    7.21069556305924
H         6.84833331667494    4.91407622106875    7.96715588560808
H         5.16228486682614    4.96359235166903    8.56133282972419
H         5.49717250857098    5.00529910733355    6.79671942390070
H         9.55425451097132    1.50512341873967    4.24645677515492
H         8.15199579135337   -0.35887155951743    3.30350779339405
H         8.61815552284621   -1.38648602745243    4.67427237018827
H         9.84327848388432   -0.83545763431922    3.51942300798586
H        10.31560118444427    1.33282526452450    6.60377471510719
H        11.12055186799606    0.09371211950716    5.61773983740426
H         9.76716191902841   -0.35069281437816    6.68309211179891

