85
CSD_code = NUYFEU | q = 0 | S = 0 | Stoichiometry = C42H34FeN4O4 | MND = 6
C         0.24455303620808   27.16469154116904   17.74886746874314
C         0.03746517695978   28.34865725544084   16.98907021563065
C         0.39398947054260   29.62600101149895   17.45715695203325
H         0.03232154262424   30.44821576210779   16.84069343073545
C         1.42104553874055   31.15775151013989   18.92580230984665
C         0.70982909849335   32.29204572847889   18.61748164149101
H        -0.16618947617027   32.23916517798327   17.98825789504756
C         1.08234924913688   33.54665809568309   19.14007727978595
C         0.36249333219660   34.72064144585786   18.84098749235095
H        -0.49232492694727   34.65095002254240   18.18350765844529
C         0.73793689406360   35.92600030963641   19.36760428987183
H         0.18176018811124   36.82113349855268   19.13079325822751
C         1.84823896946867   36.01033441527063   20.22053400652472
H         2.13210977263802   36.96923504574867   20.62883942356006
C         2.56494542644617   34.88786945212797   20.53323836484388
H         3.42102877297672   34.94873527961030   21.19040350939991
C         2.20661851696668   33.63199438916006   20.00420210974835
C         2.92239424550144   32.45938106037899   20.31973813831398
H         3.75225159229938   32.53807240134948   21.00711166551111
C         2.55412405246863   31.24287977781211   19.79837566744177
C         4.37918806998440   29.93137368819274   20.50476329465365
H         4.96528572860557   30.84503752836843   20.59864899510751
C         5.01736355910485   28.74824788572088   20.92429569622177
C         4.32289323394148   27.50192020370819   21.02473798753693
C        -0.50994368923272   25.90219317000776   17.38163823613015
H         0.10870635474891   25.26767708443723   16.75016148701404
H        -1.43542425085783   26.11887836330583   16.85788846511317
H        -0.72133937134072   25.35634973299084   18.29888933968737
C        -0.60465686934726   28.35230280286790   15.67088646703804
C        -0.25461694732801   27.23136819670249   14.75209811451024
C        -1.18434020682136   26.77478291962593   13.82368024180733
H        -2.17392297820619   27.20724154141696   13.82306211649661
C        -0.84246718808659   25.78171370206205   12.92454799321127
H        -1.57219502083578   25.42165480608583   12.21432391555742
C         0.43907023620840   25.25549649753228   12.92781899772982
H         0.70871416442620   24.48414674120870   12.22132660311321
C         1.37929744570445   25.72726558711630   13.83022785392926
H         2.38411116303021   25.32982763711709   13.82191912146565
C         1.03634242022369   26.70887347065049   14.74122565810890
H         1.77129210165692   27.08458628501394   15.43922777837847
C         4.97981756548382   26.34280026622319   21.72625492670775
H         5.16013589526394   26.58866071543666   22.76982089882695
H         5.94779203461747   26.12388290002637   21.28197558249656
H         4.32817128619871   25.47526497424650   21.65515496699509
C         6.43221993360920   28.84804934231592   21.27169268241067
C         7.20048923637972   29.91334839562807   20.55155633072478
C         7.02573447714257   30.12495212090950   19.18586727956820
H         6.29425231644657   29.54247334449291   18.64267152301363
C         7.79603724996925   31.06343875856161   18.52429676599105
H         7.65856018951399   31.21997479332529   17.46405730054420
C         8.74314344995629   31.80079055890920   19.21680372783042
H         9.33884700818749   32.53752043942845   18.69791370126227
C         8.93224789010359   31.58445136005868   20.57190299191980
H         9.67711028106791   32.15142490563615   21.11090799918937
C         8.17312334275371   30.63670392045807   21.23360890201624
H         8.31927178329734   30.44609252484277   22.28651095257712
C        -0.42225663160378   28.77028926671850   20.83396769891639
H        -0.77770099584462   28.65781727584607   19.82166879784533
C        -1.31492125313364   28.87986694416667   21.88303801899453
H        -2.37593139126474   28.85406470726681   21.69039694844102
C        -0.82574335844697   29.02232836208831   23.17274660231429
H        -1.49334752930309   29.11021563416271   24.01592694667513
C         0.55024371935603   29.04790733106165   23.34239906778209
H         0.98776394503280   29.15627254852945   24.32237517004002
C         1.36632770492875   28.93229011495564   22.23326409619264
H         2.43978918731520   28.94786110194690   22.33922583117576
C         3.61134097995268   27.02541260002571   17.70346304999136
H         3.18850221826797   26.26842048346652   18.34543037097173
C         4.44114134247729   26.69661142324613   16.65095108652963
H         4.67846676705750   25.66197278162857   16.45874478951309
C         4.95870271700551   27.70799893196083   15.85245489629299
H         5.60892721103938   27.48647274598107   15.02075802802607
C         4.61057240506288   29.01466055755380   16.16231027043778
H         4.98240498174687   29.84257436796346   15.57916765447417
C         3.77452720950303   29.25386509369038   17.23529513464818
H         3.49484958349882   30.26427642013577   17.49142303615530
Fe        2.09764250865459   28.55583907519517   19.48523318671626
N         1.13235804161645   29.87140069958159   18.50174376231491
N         3.15621129949622   30.02288720496304   20.06258803784444
N         0.90229895204495   28.79273121697603   20.99049583514714
N         3.26891474475962   28.28406796080699   18.00647068339934
O         0.95068545045479   27.10081060417109   18.78092691881773
O         3.18936398015516   27.28910599612116   20.53851899313704
O        -1.30834175669245   29.27252994901914   15.27998912564437
O         7.02115559851337   28.11606825554541   22.05451828904194

