78
CSD_code = NUYHOE | q = 1 | S = 0 | Stoichiometry = C32H40ClNiP4(1+) | MND = 5
Ni        1.68566323434028    0.00055782821824   10.63280273806517
Cl       -0.60708805604773   -0.00029038085730   10.63438397166348
P         1.52127536085665    1.33252914418147    8.94704533361016
P         2.29639710412485    1.79513857456362   11.86170364401136
C         0.20326391357176    1.28657288734619    7.69117325198503
H        -0.72716388123240    0.99628452336114    8.17969513653739
H         0.44194681595393    0.56887379782110    6.90870665895615
H         0.08960481583572    2.27942441245227    7.25684371618849
C         1.34574587255074    3.04110742363139    9.62408725443104
H         1.46692763869139    3.75952162445768    8.80776100126872
H         0.32796675696871    3.12539297167675   10.01774583305500
C         3.08305700268977    1.45272517600047    8.02121213139035
C         4.25394235519377    1.11746716671356    8.69324120892291
H         4.19043208153570    0.77701340409849    9.72334115608179
C         5.47952043346645    1.20346541703522    8.06230824070152
H         6.38278834859275    0.94506997073284    8.59434891272878
C         5.54093921667082    1.60997110111270    6.73966177822645
H         6.49357318845861    1.66820083278454    6.23652809260800
C         4.37903413938378    1.94052414444253    6.06168628978364
H         4.42830179342378    2.25860307737108    5.03142407674280
C         3.15172023477197    1.86809479001124    6.69684003446844
H         2.25521933658444    2.13598590466860    6.15854526036219
C         0.90198249883259    2.31437285309532   12.92150402679238
H         0.00254201343359    2.35666116593313   12.30618231564758
H         1.11199466347678    3.29120887112552   13.35698564881788
H         0.72659476674698    1.58585521703317   13.70898981343100
C         2.38286588313791    3.24862304948575   10.71803878759842
H         2.20668677622154    4.16796853583259   11.28293226476057
H         3.37980409867021    3.30078481519740   10.27298477726301
C         3.75342150798259    1.96496776979663   12.93295725687607
C         3.66104179129718    1.71569193657383   14.29918132511688
H         2.70651235282001    1.48382826038403   14.74703607917408
C         4.78973079189885    1.76586492043672   15.09562033020403
H         4.70459873655706    1.58002645041913   16.15547980413455
C         6.02399976838907    2.05345766544859   14.53752907151027
H         6.90368106955413    2.09387715388803   15.16095322298114
C         6.12654834525141    2.28569406456217   13.17595857449048
H         7.08728112225409    2.50694055314204   12.73572793943773
C         5.00123924600573    2.23098601986443   12.37526306932740
H         5.09875513051609    2.40057434710982   11.31234540867073
P         1.52142683939880   -1.33300931770053   12.31748510810999
C         0.20315335589952   -1.28667166692173   13.57313775292170
H        -0.72720037621646   -0.99639261826913   13.08443571685512
H         0.44164418450335   -0.56887529579710   14.35560191497830
H         0.08934711003857   -2.27941157270249   14.00770714474777
C         1.34570169524724   -3.04163021382649   11.64077241954284
H         1.46691420793906   -3.76009154847031   12.45707617857471
H         0.32792576054887   -3.12573845703087   11.24707914514398
C         2.38280353511947   -3.24839935302615   10.54668817766503
P         2.29633921627684   -1.79431790722298    9.40360700320302
C         0.90225646298150   -2.31455500569388    8.34380217405064
H         0.00275384719472   -2.35683180707131    8.95901643483729
H         1.11224684048378   -3.29143897001437    7.90832680897698
H         0.72673133427250   -1.58616441544742    7.55625091965757
C         3.75314226055931   -1.96503812145093    8.33206986442405
C         3.66067242078922   -1.71580703673436    6.96581258270239
H         2.70612439612283   -1.48389125314953    6.51803679706616
C         4.78932962154019   -1.76573719349422    6.16927770389908
H         4.70409269708782   -1.57992976658393    5.10941742496621
C         6.02368090573886   -2.05320012448173    6.72723685666009
H         6.90329108558004   -2.09369485842443    6.10369937169750
C         6.12635094062038   -2.28549887226389    8.08878226198179
H         7.08715286732006   -2.50673907386985    8.52887724135397
C         5.00108190626804   -2.23103421604484    8.88958233033985
H         5.09875324919341   -2.40056332168350    9.95249401516309
H         2.20672166662837   -4.16783002028044    9.98187245806915
H         3.37969825817026   -3.30059022135871   10.99182926853340
C         3.08293267313747   -1.45269722835993   13.24386918620348
C         4.25388470973032   -1.11751817450116   12.57192415420235
H         4.19046017089265   -0.77717244658760   11.54178694402598
C         5.47941050309574   -1.20353358228350   13.20294749101154
H         6.38271301207334   -0.94510388444401   12.67098189076058
C         5.54072809517323   -1.60994540942946   14.52562570764110
H         6.49331692228592   -1.66803406449452   15.02887232366133
C         4.37876286084892   -1.94038260845922   15.20355185842807
H         4.42795737369341   -2.25840264206595   16.23383911503747
C         3.15148430033899   -1.86788366534547   14.56832294944095
H         2.25496481987383   -2.13586150612663   15.10654786541304

