96
CSD_code = NUYLAU | q = 0 | S = 0 | Stoichiometry = C42H42B2CoN5O4 | MND = 6
Co       -0.25346753024793    3.53891095187291   13.19503484023342
O         2.27647621012538    2.22566544339173   13.36953562371962
O        -0.75882137726492    6.35052049445588   13.17368641639912
O        -2.77446789758431    4.86503429489996   13.33988986193296
O         0.27192644956940    0.74828172499867   13.50640257781981
N         1.59890532448849    3.36113517905474   13.23969216769240
N         0.12170504965651    5.35752424868551   13.14535839623759
N        -2.09654177141719    3.72236191125844   13.30934695807116
N        -0.62061458223049    1.72642150544044   13.39462167207558
N        -0.30440727266293    3.44595091846466   11.28520416075999
C         3.72619103698473    4.59140939881849   13.39993675266672
C         2.24112212245566    4.48903019976215   13.27436175444487
C         1.38704124764421    5.64358722208021   13.21304422766257
C         1.91286444684837    7.04033980377448   13.26423137743636
C        -4.21123235270037    2.52834151009476   13.71420352121480
C        -2.73364426632226    2.60900589984875   13.51159386968762
C        -1.87946621356970    1.45355963722520   13.55820737641303
C        -2.39869735492271    0.07670999241580   13.81239404850695
C         1.54912660077981    0.91568459065713   11.27000215902039
C         2.48394491209886    1.58651807915209   10.48608690870024
C         2.46297538659332    1.50336384151947    9.10540613806989
C         1.49696587652210    0.74063733069747    8.47078489974811
C         0.55267462629685    0.07086746000812    9.23058619760310
C         0.58447541494726    0.15883767134143   10.61086455950885
C         2.58039658274116   -0.26614934404790   13.40808412247317
C         2.05090178106499   -1.47253789613612   13.85522897809690
C         2.86627299590865   -2.51328344664476   14.26305082555277
C         4.24240582802963   -2.37079166380901   14.22917137179268
C         4.79122195341377   -1.18046958995175   13.78422228302337
C         3.96689827151682   -0.14710344162309   13.37728239896688
C        -2.27646901357922    6.07046987627835   11.11164147305680
C        -3.22459020571196    5.28667058089018   10.45869091758201
C        -3.37388276930658    5.32599210901582    9.08336069439369
C        -2.56402658317798    6.15344142519809    8.32142695707510
C        -1.60494252692741    6.93315504617661    8.94960122177018
C        -1.46871090452577    6.88823555556302   10.32567929664049
C        -3.06417979599677    7.32925779229738   13.35139376451561
C        -2.60693240373553    8.07771543710058   14.43233589535939
C        -3.37390124147375    9.08445560095401   14.99216255950298
C        -4.62881388722991    9.36522668197522   14.48080588722528
C        -5.10418287295930    8.63287038002527   13.40664670415299
C        -4.32824958867992    7.63024191514703   12.85242055714449
C        -0.31883383136960    3.48791305909145   10.13961138836127
C        -0.33608010787614    3.53681082353815    8.71928431300693
C        -0.18115517743607    3.63339897163678   15.11615052672939
C        -0.79985938769943    4.53412901754033   15.87203039308514
C        -0.74942011094267    4.63606984955247   17.33053389475193
C         0.05015340377390    3.82279181469329   18.13405256114476
C         0.05441085443279    3.97498876372710   19.50724162089379
C        -0.73652901868376    4.94031659294652   20.10891285015110
C        -1.53440415726112    5.75595663935730   19.32368820224533
C        -1.53980984777228    5.60611011270191   17.95042304332076
B         1.64203147792842    0.93423940834653   12.89249953204042
B        -2.18669052832669    6.12280500224806   12.73121862542127
H         4.14703334572630    3.59478268488296   13.50429345914718
H         4.15237733387826    5.07196769199582   12.52007761951277
H         3.99198164239946    5.18423080695966   14.27319234717018
H         1.10939967352354    7.73619322333530   13.03555263972173
H         2.29049639979002    7.26264644328355   14.26179008871866
H         2.72676365306295    7.17168136411479   12.55441504678360
H        -4.63442951494833    3.52881254966297   13.67336690802291
H        -4.67011135127311    1.90939618135191   12.94427575707792
H        -4.43550447903748    2.08694432981537   14.68364616869589
H        -1.60482444310481   -0.64538222648775   13.63929820763146
H        -2.73128731387690   -0.01456559314814   14.84587636135527
H        -3.24273322633796   -0.14259386537235   13.16196034356697
H         3.24989345642986    2.17596711421555   10.97042550599974
H         3.20896961999824    2.02497553549281    8.51992979321206
H         1.48440689078922    0.66388225504236    7.39190537417971
H        -0.20293985881073   -0.53157545193890    8.74378667525481
H        -0.14740516188427   -0.38191428804777   11.19435361814372
H         0.97793186266770   -1.59033287230960   13.88845215223647
H         2.42854535452194   -3.43998106455136   14.60879804216385
H         4.88299984468845   -3.18182527559198   14.54633225170872
H         5.86569316666016   -1.06045731339389   13.75300206647043
H         4.40342256892579    0.77748757745762   13.02886188111797
H        -3.86833862848219    4.64423070970230   11.04346687740116
H        -4.12740351139225    4.71704965653202    8.60210741453563
H        -2.68687503074374    6.19885198203436    7.24763145913097
H        -0.97159320504145    7.58438265858407    8.36259369505565
H        -0.73130631492238    7.51276318745957   10.80970529150943
H        -1.62713275880238    7.86783299642396   14.83738332673615
H        -2.99371261961180    9.65047333662536   15.83201610896838
H        -5.23234598553931   10.14952380058882   14.91608321432424
H        -6.08322383843502    8.84609707266806   12.99965059543251
H        -4.70793137721755    7.06771567740467   12.01114364008727
H        -0.71939416316631    2.59409486646812    8.33059399246252
H        -0.97641481586105    4.36214875598903    8.39917759349100
H         0.67822429588050    3.68620387735059    8.35127058679709
H         0.43095297519697    2.87547601662330   15.60212916738923
H        -1.42774746533870    5.29434178213538   15.42134698950353
H         0.67693949346168    3.06753957063378   17.68451359997147
H         0.68039251545168    3.33672854301851   20.11445411950551
H        -0.72968455893419    5.05636383794380   21.18277985319821
H        -2.15391431661183    6.51192707554420   19.78450995527271
H        -2.16513342790764    6.24468840578035   17.34182088623476

