40
CSD_code = NUYPON | q = 0 | S = 0 | Stoichiometry = C10H22Cl3O4Y | MND = 7
Y         2.29267554436649    1.94610320631407    2.21291318827602
Cl        4.47004342006126    1.71561807311738    1.08027789485095
Cl       -0.13916541379305    1.93584245097010    2.58120692666774
Cl        3.09030927728527    2.75263470254231    4.40208207340361
O         1.44135481048730    2.37218345779041   -0.25087864590305
O         1.88511390484419   -0.20996274562072    0.85359214062876
O         2.53288350119395   -0.29626569708029    3.48550559461767
O         2.27647420632105    4.35630743774147    1.88410398313467
C         0.53832617165441    3.43230425163712   -0.53811285596632
H         0.39087684730704    3.51975801993886   -1.62031297769392
H         0.99196389457072    4.34500487576224   -0.15737638073661
H        -0.42561333758663    3.26155743790058   -0.04662852386570
C         1.01676601442822    1.16429098661940   -0.86602538397673
H         0.96460975679686    1.30386591497387   -1.95510741598751
H         0.02476440439092    0.88331309152380   -0.48233356983429
C         2.01523211700796    0.06382716981076   -0.53531053419663
H         1.78338190096994   -0.84014525675760   -1.11500197693058
H         3.03568961642328    0.40409781541939   -0.76029051205648
C         2.73395238083041   -1.25563309805565    1.31059798835523
H         3.78714942442971   -0.94828739307557    1.23370091278462
H         2.56720935027702   -2.16383883901396    0.71566151322440
C         2.12777216297918   -0.43155662608426    4.84433413886520
H         1.05351145533231   -0.63744343444150    4.90838919133587
H         2.35089870390392    0.51573347352942    5.33628958828655
H         2.68850140441073   -1.23872415960488    5.32703683601454
C         2.35665069947797   -1.50681022768670    2.76612024800813
H         1.30202191514150   -1.81705672202261    2.82234905151955
H         2.99364198271069   -2.29432600039452    3.19327051630251
C         1.44061934872936    5.17279729334076    2.71497605103864
H         1.72836444548922    5.03268333269639    3.76575098781906
H         0.40758058221722    4.84584092311430    2.57381387787038
C         1.71078565804989    6.61337553012498    2.26178698566223
H         1.67433535426469    7.29876024783052    3.10495596439359
H         0.97152780943756    6.93340972643066    1.52835597177381
C         3.11370704804183    6.54080908708487    1.63154034150079
H         3.07760410115290    6.80429617918449    0.57510845393391
H         3.82302666264862    7.20078161278496    2.12480327995012
C         3.51421415667535    5.07105195587455    1.80716895096165
H         4.08537527976036    4.66324005879671    0.96962616249174
H         4.07616343730801    4.92696188698509    2.74055996347475

