43
CSD_code = NUYQED | q = -1 | S = 0 | Stoichiometry = C22H14O5PW(1-) | MND = 6
W         3.02182803366623    5.90992983297271   10.43587396402074
C         4.53644634237185    6.18727125866405   11.66193529438854
O         5.43505567000648    6.32626752170769   12.37243605063035
C         3.94772296015659    4.35675275431080    9.68645948671763
O         4.48826215084676    3.42933219579026    9.24409363823785
C         2.11078772723135    4.75978918708608   11.77523513380617
O         1.59278339015451    4.06312880836646   12.53027266032736
C         3.92267634008497    7.08782488752069    9.11600711684641
O         4.50158160628419    7.73853151101533    8.36240400604500
P         0.95196916849663    5.82700550218770    9.16080067497691
C         0.03273246388021    7.26631613544940    9.71773175288009
C         0.67572453638216    8.00656701764292   10.75930566551856
O         1.81072591334762    7.70334146117989   11.24084046263208
C        -0.04478262854465    9.14159195031493   11.23101599609781
H         0.40363391840128    9.72119198216611   12.02667027353199
C        -1.25248698157425    9.50428922623698   10.69420887589902
H        -1.76459729042476   10.37907415041167   11.07855294204339
C        -1.83570847180962    8.77754745097585    9.65601789973471
H        -2.78355003771748    9.08660090742540    9.23660924113271
C        -1.18350857837668    7.66266556684884    9.17274853818286
H        -1.61316056637973    7.08534109821234    8.36052868077321
C         0.76439655625877    5.96419752952402    7.35008579432928
C         0.13812565669746    5.02869328352152    6.53622600595298
H        -0.29336498480859    4.13682750309730    6.96962832359532
C         0.06092844638520    5.23915748174050    5.16988704470845
H        -0.42995077881709    4.50729378570432    4.54196459350865
C         0.60490240492395    6.37960368479927    4.60509099549122
H         0.54068709788339    6.53912201406760    3.53733837614193
C         1.23221594551347    7.31711094923877    5.41215402811628
H         1.65861498857946    8.20900759735838    4.97425210247868
C         1.31241067396544    7.10822093698318    6.77378208796796
H         1.79923180973089    7.83239668206775    7.41534958473639
C        -0.10241404340289    4.38306722972243    9.53145856819855
C        -1.33633997187383    4.47050129448442   10.16199373843468
H        -1.74716959848162    5.44198852307170   10.40092101461260
C        -2.02830724191849    3.31850055322533   10.49559642898068
H        -2.98785689936034    3.39228274526389   10.98979328090712
C        -1.49393702017470    2.07481109265452   10.20688464938751
H        -2.03600026617362    1.17733961619174   10.47264706580490
C        -0.25425025686001    1.98032244546636    9.59223287807979
H         0.17275908032908    1.00919816730888    9.38222687045143
C         0.44115433129062    3.12735767158342    9.26463246863155
H         1.42332840381305    3.06923880645478    8.81040574506284

