68
CSD_code = NUYVEI | q = 0 | S = 0 | Stoichiometry = C22H28ClF13N2NiSi | MND = 4
Ni        3.97686705032028   -3.17407139179451    8.53317546425947
Cl        5.17212222858747   -4.52442134803985    9.61418194137892
Si        0.29478043260083    1.02125874863383    5.16675878585976
F         2.76374238808087    4.21767541745712    2.79589882930640
F         2.19654139704752    5.27170330880179    4.59672977308959
F         0.73346797257749    5.23545281662658    1.40516342889151
F        -0.18963211665382    6.09168211471108    3.16022060675453
F         3.13110027663609    6.80107797546111    2.28722847463161
F         1.71622164297659    7.78836387942498    3.59097252079330
F         1.81252885266086    7.38250693468629    0.11283875063684
F         0.00896475468503    7.93282758052010    1.16971168201265
F         3.09045469102052    9.47984749225024    1.80109964864355
F         1.05003696562214   10.07206816079722    2.21742224790663
F         2.74829147563780    9.73418561444445   -0.82790345146557
F         0.61136237395328    9.92182632900328   -0.64694843058585
F         1.89708866875349   11.45348233258184    0.13865188521486
N         4.59827818731775   -3.71065817728981    6.64878585197096
N         3.05286333469961   -2.28365033564381   10.13892476222130
C         2.93341545032328   -2.00369913110265    7.59299623396441
C         3.11890384301411   -1.84566664078491    6.21985384658298
C         2.32540474502956   -0.95839981514521    5.51432962735957
C         1.34197045653595   -0.20612807498474    6.15729709117814
C         1.16792246181619   -0.37035260349836    7.53042923491155
C         1.94975764418459   -1.26182008010313    8.24525097673556
C         4.24626722265209   -2.66375602664067    5.65517622946143
C         3.77178240891609   -4.90354619253664    6.40654575604611
C         6.00734118198489   -4.08310255600365    6.50033110209178
C         1.82376323662909   -1.56723919644157    9.71168431860312
C         4.07048665890785   -1.29893378584066   10.53903471295531
C         2.75512975478441   -3.13842007642221   11.29065075540870
C        -0.38067758893465    0.20625141231290    3.57941591312447
C        -1.14398009020442    1.71886005169124    6.20267176524464
C         1.45947851834556    2.46755737290302    4.67098167208156
C         0.74524708012287    3.53499508633470    3.85332499330706
C         1.69355036853169    4.66982944359510    3.49261593404914
C         1.00023651965762    5.75977572093172    2.61739884016517
C         1.82908457081445    7.07171298710621    2.45998931325019
C         1.34926770685672    7.93334541152940    1.24739229155332
C         1.82999688970947    9.41429733285316    1.34488685376372
C         1.76793279619551   10.14493222614674   -0.03374747511228
H         2.47312961609505   -0.84357054995163    4.44954371563178
H         0.40969724123682    0.20239220513981    8.04444767720394
H         5.11505064160767   -2.01310789905171    5.51107487598636
H         4.00135840865956   -3.11987156693682    4.68656263832892
H         3.97019933828026   -5.64800900661906    7.17900547258885
H         4.00634472283291   -5.33920122404427    5.42624982982524
H         2.71410993453668   -4.63555408788125    6.43180091948590
H         6.64136666501154   -3.22046328130239    6.70161475109041
H         6.20468192364060   -4.44959341500688    5.48527042084521
H         6.25606992668083   -4.86176434972981    7.21976576505281
H         0.96455637515363   -2.22945223633189    9.86103547491769
H         1.66924419961076   -0.66928489112362   10.32497083165402
H         3.73718494712204   -0.74294818678967   11.42532174542509
H         4.24829238836547   -0.59451458173436    9.72472540601552
H         5.00292892050739   -1.81324371630761   10.77653485741264
H         3.66290158373889   -3.64757299894194   11.61075881892430
H         2.02302441389635   -3.89496559657328   11.01078413928567
H         2.36059321951565   -2.54152052848166   12.12235647232109
H        -1.09350581587377    0.85093361269495    3.07379271363481
H        -0.88852705686656   -0.72646906973398    3.80394890269740
H         0.41537868779352   -0.01778358620225    2.87597100118429
H        -0.78605146078823    2.33187207944561    7.02426288840320
H        -1.74750599679651    0.92108910682963    6.62374534491349
H        -1.80174852648701    2.33480722634760    5.59672419540473
H         1.87778280651994    2.92907075349636    5.56522628753543
H         2.30121465305978    2.08422504225318    4.09516677619548
H         0.36236822038672    3.11758619122507    2.92134068210491
H        -0.08270238985245    3.96266423661858    4.41907463805223

