57
CSD_code = NUYYIR | q = 0 | S = 0 | Stoichiometry = C24H26Cl2N4Pd | MND = 4
Pd        8.96962547326008    6.77397718337607    6.60564387250835
Cl       10.56874838750521    8.37480424468370    6.32055041015767
Cl        9.65685405834232    6.29199303105895    8.68531584354126
N         6.79103311844724    5.36755691482987    7.88968036634581
H         7.00712358970533    6.06780958472343    8.59647856047569
N         7.60228212871196    4.25355566704786    6.06764783212415
H         6.91018982767560    3.52187791475299    6.21002362156695
N         8.26653982023798    3.47356565215787    1.35302752281752
H         8.82261495948232    3.73804153727789    0.55684869758104
H         7.27329583598812    3.57664504764531    1.22820234596759
N         8.56083014453766    7.22179425155301    3.64665682294231
C         7.64205860037368    5.31567535589921    6.87151846626553
C         5.86196678732215    4.35638140383887    8.26192207732420
C         4.75705253494072    4.08852290589962    7.45193320386598
C         4.49314047900626    4.86214563182044    6.19188564914434
H         5.08463575209427    5.77466326307153    6.15157295809193
H         3.43918524150906    5.12732789322089    6.13751811493555
H         4.72504288426151    4.26236826864333    5.31078637194572
C         3.87424342116119    3.09051413867815    7.84786388066789
H         3.01524196322556    2.87387697011858    7.23002103993110
C         4.07967396222076    2.38875043707456    9.02022751951352
H         3.38508766109491    1.61641319855071    9.31385482624773
C         5.16724329333009    2.68236431192154    9.82421974332909
H         5.31855545099060    2.13957376938575   10.74518152169971
C         6.07258569011889    3.66875872046042    9.46164537463287
C         7.24137772503684    4.01053750824010   10.32976665630897
H         7.44287799123080    3.20763140201403   11.03349932957472
H         7.02856614605523    4.91419683779668   10.90273972384737
H         8.13901120183941    4.20591980435315    9.74425159894016
C         8.47172882020327    4.12727357985718    4.96000530433016
C         7.94986959644923    3.82112002716958    3.71291715309247
H         6.89247798399671    3.62341094835471    3.60312253425757
C         8.77599792783806    3.79402103030447    2.58823808578269
C        10.14043278998546    4.04504505995564    2.75178617293588
H        10.78419269825108    4.03010886299967    1.88536975634253
C        10.66142467171584    4.30118196733832    4.00369311246129
H        11.72270987415088    4.46150619256658    4.11726265892639
C         9.83985932782651    4.35664540053072    5.12096506560599
H        10.26450572641803    4.50867293132740    6.11445818486606
C         8.53574274941138    7.15415280560422    4.81419735901501
C         8.80388681960434    7.20496791784370    2.31318861484118
C        10.11435833597250    7.43688350641886    1.87097215884876
C        11.18761204161819    7.74907281176704    2.85667679667700
H        10.97328601716960    8.68238550113035    3.37767751057275
H        12.15407187330773    7.83232124518978    2.36825191418065
H        11.23737180633462    6.97839951418002    3.62710951285579
C        10.35466910621384    7.35594371051089    0.50794332017715
H        11.35476007752323    7.52826276602852    0.13929442783593
C         9.33432547725708    7.05966091663493   -0.37997202949776
H         9.54319270288082    7.00044944919822   -1.43772932669974
C         8.04555592586516    6.84253158134876    0.07880977929618
H         7.25400115288757    6.61834692849474   -0.62153985169742
C         7.75691402345454    6.91410128277883    1.43205134071315
C         6.37336134568128    6.69926199856347    1.96305373213050
H         6.39111052806980    6.01293385599852    2.80913597373862
H         5.71782658213598    6.30602243455670    1.18996645868298
H         5.95856988815057    7.64317292319304    2.31721032756456

