62
CSD_code = NUYYEL | q = 0 | S = 0 | Stoichiometry = C28H28Cl2OP2Pt | MND = 4
Pt        2.94245043882850   -8.15687289490415   -4.61849183893975
P         3.85117765635965   -6.35395129542572   -5.61993691042652
P         1.58770423079010   -7.05646066148865   -3.18590716548680
Cl        4.35083420955596   -9.31407272665782   -6.04261634334738
Cl        2.05343645855986  -10.02635702521093   -3.62045201235511
O         1.44162190549001   -5.46497322146985   -3.47066002589059
C        -0.16622037735935   -7.43487940627030   -2.98652194854593
C        -1.13339925120162   -6.71482655169403   -3.67768237925170
H        -0.83521540631925   -5.89561840947110   -4.31477273938428
C        -2.46897511491393   -7.04599893317325   -3.53548881006972
H        -3.22253473640183   -6.48274232198956   -4.06677248663779
C        -2.83941399399250   -8.10218581908634   -2.71901746328544
H        -3.88275723798577   -8.36098434846041   -2.61350231816824
C        -1.87332456008185   -8.83098061636958   -2.04315074725549
H        -2.16251984268163   -9.66001066604371   -1.41464153523107
C        -0.53688351928883   -8.50240109625173   -2.17538819771898
H         0.22572007438206   -9.07444910212828   -1.66777292455798
C         2.26351597004630   -7.12040606966721   -1.49698540789653
C         1.59519617784871   -6.51621277822485   -0.43864840098089
H         0.63478661061933   -6.05021160178295   -0.61241517330235
C         2.15980231323060   -6.52669186483946    0.82332511914613
H         1.64347649228590   -6.06007609323925    1.64954510750254
C         3.38606919031125   -7.14068600147298    1.03003801854354
H         3.82173538340473   -7.14949818588738    2.01837088174520
C         4.05041958526210   -7.74773142817307   -0.02345442108705
H         5.00080216415712   -8.23266136585522    0.14263157500056
C         3.49038505813096   -7.73488913831518   -1.28832311765375
H         3.98226742372057   -8.22388284250006   -2.12524447683692
C         3.89307985203424   -6.39472164644577   -7.42882133902665
C         5.03663277959646   -6.18645610546177   -8.18727544468805
H         5.97537997561325   -5.95835966325834   -7.70380090083992
C         4.97101542457092   -6.29750375134130   -9.56577790960127
H         5.86057425494683   -6.13940036298982  -10.15780571656281
C         3.77685108380092   -6.62483687754021  -10.18512061776485
H         3.73563863956721   -6.71886761362745  -11.26018508040478
C         2.63869027263521   -6.85465479620211   -9.42682755388838
H         1.71368220181377   -7.13369487017271   -9.90943686497881
C         2.69719907929323   -6.74419385365271   -8.05188078491106
H         1.82653330462021   -6.95598014576375   -7.44032316251874
C         5.52140894448186   -5.94251851215544   -5.04590538800738
C         6.16682076445295   -4.75430696840105   -5.37881281667687
H         5.68420605521668   -4.03202507199086   -6.02323407315805
C         7.43731909393853   -4.50197819414273   -4.89426743809689
H         7.93901620102599   -3.58198936902756   -5.15731240584952
C         8.06940678385110   -5.42652024381685   -4.07699493835629
H         9.06174899824090   -5.22261656000504   -3.70291504617262
C         7.43226761890712   -6.61095130358098   -3.74551442107582
H         7.92639873902866   -7.33446941839821   -3.11468598236081
C         6.16223318185841   -6.86823861794891   -4.22897209152089
H         5.65703655442348   -7.80092489840022   -4.00034162147104
C         2.90765935342378   -4.79474606269322   -5.28116144757110
H         3.48655306304224   -3.92885139835464   -5.60741903589165
H         1.97156826865551   -4.81672145236321   -5.84499682479019
C         2.59478235879309   -4.69007978962095   -3.78354504393441
H         3.45684468462221   -5.06651445101983   -3.20702192189045
C         2.30549436427140   -3.24922373076850   -3.35818992127522
H         3.14805649016485   -2.62422703073114   -3.65867774247576
H         1.41356480223210   -2.90669897386950   -3.88582931402652
C         2.08992276576416   -3.13395414447966   -1.85443600717460
H         1.91736269580983   -2.09739255388609   -1.57714748553221
H         2.96220678991528   -3.49894355236761   -1.31608464229774
H         1.22878725661580   -3.72282554948182   -1.55254287280071

