21
CSD_code = NUZJUO | q = 0 | S = 0 | Stoichiometry = C6H8Cl2N4Zn | MND = 4
Zn        0.65044888136955    5.44548784044311    8.20550204941036
Cl        1.03752738218334    4.12120861332846    9.95902750985423
Cl       -1.03127734361746    6.79631118011869    7.63302861209854
N         2.12472061732795    6.89979652926953    7.95724736178106
N         1.65142894312690    8.05518358156405    7.49452569702171
H         0.64079989531152    8.10615869140930    7.32439359564420
N         0.96590151068653    3.94490927440739    6.79013853503952
N         1.33145689839212    2.78212121775129    7.32628297985621
H         1.41890730133268    2.75147875817587    8.34810963963503
C         3.42755736788213    7.06423880707521    8.13839111633249
H         4.03373040495108    6.26343453776051    8.51257773294490
C         3.79639281691565    8.36053379227929    7.78264382991104
H         4.77451985728435    8.79228494347806    7.81953953439727
C         2.62218472766442    8.96378493098749    7.37659999968689
H         2.43371713120300    9.95690887486367    7.02270365344944
C         0.87849537738937    3.75279152771167    5.48152852828499
H         0.59388965974823    4.55346502069353    4.82826092505305
C         1.19582737986068    2.43085747888740    5.17344609657141
H         1.21297608537240    1.97390652194174    4.20632829640480
C         1.47822745216225    1.84181538663891    6.39022647958875
H         1.76536765345310    0.83832249121098    6.63039782703581

