93
CSD_code = NUZSUX | q = 0 | S = 0 | Stoichiometry = C31H52FeN4Si5 | MND = 4
Fe        4.85922480965028    7.91616036544163    3.88259141896514
Si        5.19435922817487    9.56905323078473    1.83039829571056
Si        3.59002813571546    5.81338329148170    1.70608218178006
Si        3.27513537684238    5.63310086660659    4.75958132387569
Si        2.82021799372686    9.97479509369552    4.94706918866157
Si        5.74041844893422    9.92418978921038    5.91178634794935
N         6.35677459570692    7.05646636141509    3.23700415512209
N         2.94861928876879   10.07536716574880    0.07511321448157
N         3.92816404573983    6.28980963183247    3.31832710693093
N         4.46087683232723    9.45192854846813    4.86570989932179
C         6.69855895437949    5.84423719112776    3.64381425455430
H         5.86876630534546    5.19124437115281    3.84945932418860
C         8.01648650104144    5.42351787170537    3.80070321772676
H         8.21685432816552    4.42347633682825    4.15159602193400
C         9.03470491913730    6.30010897902241    3.52344676109662
H        10.07055794404782    6.02962423569873    3.66058576739922
C         8.70990475312629    7.58378056079040    3.03542978488125
C         9.70050512654523    8.53125279566042    2.71686103296744
H        10.73720614075664    8.26679087782314    2.86647227158617
C         9.34943718444648    9.75914748428894    2.22351138105347
H        10.10894117551474   10.48918741266836    1.98485589453966
C         8.00360169736540   10.05685288887687    1.99752300501091
H         7.74973021260292   11.00867671032361    1.55596597050252
C         6.99027056401943    9.16973727100420    2.30240166137595
C         7.33846404085085    7.92533693155840    2.86213054664255
C         1.80217372815074   10.35829985557615   -0.47798324065737
H         0.99745572917255   10.61412392157830    0.20049450569829
C         1.57752975427249   10.33843038277012   -1.86547871007111
H         0.60184190302200   10.58182865249480   -2.25708024728278
C         2.61615658578552   10.00308420411044   -2.69128347779856
H         2.49221496816571    9.97044914037875   -3.76542094347186
C         3.87165135058511    9.69477242985429   -2.12863076472165
C         5.00443287146721    9.34141274014314   -2.88804425283145
H         4.92117726514608    9.29763249708522   -3.96503338971509
C         6.18605111995395    9.06096324872611   -2.25946298612991
H         7.05638291873892    8.79000468864420   -2.83988831446971
C         6.28574966164570    9.11855637587957   -0.86042670731500
H         7.23446999704783    8.88939852687640   -0.39690150026737
C         5.21311623183650    9.45372741466184   -0.07365336482111
C         3.98919890854883    9.74694267891102   -0.71465524836160
C         1.92193221135916    9.21457570193733    3.46027643528706
H         2.24600981331464    8.18792589436146    3.32612103813862
H         2.13453662414208    9.75251984849334    2.54493860106486
H         0.84643543821232    9.21567416086693    3.60331941040539
C         1.93896740251429    9.37616137483684    6.54500444402028
H         2.12502134717155    8.32729608519116    6.74412980736917
H         0.86409008794515    9.50929469606237    6.46093275616767
H         2.26523316408017    9.93815455855942    7.41336704079243
C         2.63399015472293   11.88142539683327    4.97438511266566
H         3.41405673637929   12.34224006124265    5.57115604475886
H         1.68080846201236   12.16086005789864    5.41173942382067
H         2.67629502794546   12.31440365635722    3.98190714109321
C         5.16829124024624   10.29384940461285    7.70073120583903
H         4.70188281491823    9.42801994728438    8.15859495848641
H         4.44915010476518   11.10528047331085    7.72038371592601
H         6.00843679202089   10.58504043713201    8.32402513564531
C         6.65734473998211   11.49056368555439    5.30222020229606
H         7.09888061046220   11.33668195043564    4.32348575380339
H         7.45966407211403   11.74467561194536    5.98803737323717
H         5.99981052090293   12.35088470881159    5.24146779379370
C         7.04792458091371    8.53767588162127    5.99434964513894
H         7.92944087487657    8.79652467583272    5.41989620603416
H         6.65431792886185    7.60633010490685    5.60594491250239
H         7.36683717754604    8.35893483782140    7.01501539056729
C         5.15770652395557    5.95077069596118    0.62415727966720
H         5.63065856477356    6.91744581682336    0.74274237831395
H         4.91034337078371    5.83262204232473   -0.42583326757132
H         5.88842654338012    5.19019643125273    0.87787874446876
C         2.19340833077762    6.81147590081050    0.86245045673236
H         2.44597892596329    7.86153255055355    0.78018148555588
H         1.26344845536487    6.73884731257921    1.41687073799549
H         2.00507572971665    6.43960731866676   -0.14068455876325
C         3.03226781338093    3.98473116964470    1.61131095162453
H         3.77409763600790    3.31382318981512    2.02801844026367
H         2.86472287269041    3.69212803830866    0.57972551443001
H         2.10548033066526    3.82978804407223    2.15150912084818
C         1.38630328090188    5.88204725048169    4.93381500367339
H         0.87771513211793    5.50268752820469    4.05374904781459
H         1.12028074085596    6.92624651783474    5.04230866924854
H         0.99662015034089    5.34589291390738    5.79357955381284
C         4.21405384227877    6.45168697726884    6.19821185883016
H         5.21739835475185    6.05038396023642    6.28166300259040
H         3.71840268920791    6.27983054902872    7.14675863061463
H         4.28635032183484    7.52188479975140    6.04314820015506
C         3.55761732492202    3.74518309768385    4.99306871739377
H         2.83952550402604    3.16595241556561    4.42542451578899
H         3.44457226895349    3.46864252696039    6.03708875188124
H         4.54816326081553    3.43186042168698    4.67960848325270
C         4.86625628769272   11.40779403311636    2.19915260400872
H         3.90261450207101   11.69160115124071    1.79476296912147
H         5.61181126494765   12.05603162474764    1.74869286798768
H         4.85625864261144   11.58467729431886    3.26511573961620
H         4.20977181032196    8.59878219433362    2.33292316575972

