64
CSD_code = NUZXOW | q = 0 | S = 0 | Stoichiometry = C29H31ClNPRu | MND = 9
Ru        0.63731713653390    4.57541727257254    4.21806270234039
Cl        1.02004084859996    3.19740018948048    2.34642732548942
P         2.79746961483770    4.22841088486039    4.79342522140179
N         0.42325825566554    2.76909715559960    5.20012663148349
C        -0.39309861422629    6.00393836549160    5.66655322002158
C        -1.41649908433354    5.33179364337862    4.95755513126903
H        -2.21904751101812    4.85026717697428    5.50473922111048
C        -1.44166767975218    5.31947216905220    3.55720807548311
H        -2.25817251922971    4.83453852717561    3.03251618439904
C        -0.46475635331955    6.03027451285986    2.80171160474638
C         0.52209734622001    6.75050415262107    3.49040350463262
H         1.21736807702030    7.38146529901713    2.94696421975289
C         0.58939070297946    6.68622716054508    4.90494240432205
H         1.33579093225541    7.28292254049973    5.42370949008686
C        -0.41700858551984    6.12703568703015    7.17184557802825
H         0.53746179855311    6.56559592489556    7.48702292641577
C        -1.54375248498749    7.07807616351250    7.59075544053650
H        -1.41258766612130    8.05521354625092    7.12956834995721
H        -1.54400975819549    7.20318756717600    8.67090106980899
H        -2.51229405450162    6.68339056619804    7.29057162998354
C        -0.56698530098942    4.76692041917333    7.85497930557705
H         0.16001058277232    4.06226503409705    7.45306125122173
H        -1.56289397181933    4.35871209257409    7.69998790249759
H        -0.40567670798009    4.86586927899357    8.92601271243210
C        -0.53465726599902    6.03124767399860    1.30643699257485
H        -1.56568057286333    6.11092094210150    0.96544788520144
H        -0.12577614031096    5.08642899158897    0.93542078679631
H         0.04894395219492    6.84721852579773    0.88528488557606
C         2.70400990092460    2.81259686632213    5.88239703527670
C         1.43293591921628    2.17449288617768    5.84831188464898
C         1.32000850271015    0.96932559419119    6.58284743796735
H         0.38822413537445    0.42581981185184    6.57959642474717
C         2.37396015078187    0.49752924015353    7.32696974491593
H         2.25052351495345   -0.41965375484188    7.88618705444259
C         3.59079637961005    1.17413684917713    7.39202501309416
H         4.39640743603435    0.79119438889213    7.99935268035471
C         3.75192195500327    2.33110972232914    6.65834334285515
H         4.68760779728733    2.87590102191113    6.67851216920883
C        -0.77065321249696    2.01236907538253    4.91370686228715
H        -1.43520135499942    1.96336106711976    5.78661645750849
H        -0.52557131632609    0.99256874366784    4.59665880541251
H        -1.30808055884279    2.48836042267782    4.09114099963242
C         3.68319963187336    5.51053464001282    5.73234188776637
C         4.64270068561489    6.34437952041339    5.17022605377172
H         4.93643915037424    6.20850093994610    4.13902298752409
C         5.22951654392497    7.33703490479970    5.93639014626834
H         5.97891416552416    7.98007682117369    5.49782253892261
C         4.86177224344052    7.50725432363512    7.26073090679804
H         5.32251995369650    8.28332490876759    7.85410451215625
C         3.90495364515012    6.67752274955333    7.82576124420795
H         3.62158273619197    6.80555557786051    8.86068275567069
C         3.31655845330837    5.68608779010289    7.06491880319877
H         2.57491744434497    5.02418123766429    7.49225275924526
C         3.95107756628845    3.83633108675431    3.44146088059902
C         3.94052119798322    4.67110139987591    2.32612035577585
H         3.24715688088050    5.50329147480357    2.29885358827348
C         4.77919050293877    4.41536796269867    1.25942979615056
H         4.76546331834119    5.06012673564495    0.39252160538562
C         5.62762960815115    3.31954286026109    1.29606541828536
H         6.27875867909631    3.11425414015759    0.45887927580629
C         5.62740789703797    2.47811868374499    2.39522232320633
H         6.27646894014113    1.61462974071595    2.41433606773797
C         4.78959671195391    2.73022907406315    3.46830872043009
H         4.77117981804725    2.06293002883981    4.31783980732189

