91
CSD_code = NUZXAJ | q = 0 | S = 0 | Stoichiometry = C29H55Cl2NOOsP2 | MND = 6
Os        3.31861216202185    6.60913545755610   13.67427367144072
H         1.97433262589507    6.91643091715154   12.96803677117422
Cl        4.10347117161347    6.01266792485951   11.56911009749053
Cl        5.47674714383978    6.05488943425162   14.54435253422707
P         2.70371616584694    4.25220473056280   13.83263262431370
P         4.16582249577821    8.82333861235051   13.10301443584607
N        -1.20668957098934    5.36320646926318   17.17870631776054
H        -1.75634805280119    5.84697117410388   16.48147128687237
O         0.41889584214640    5.68218965820842   18.74561239568623
C         2.62071894576698    7.10161739920179   15.25987710696946
C         1.94363298319169    7.48390828993937   16.47914057574272
H         2.44582705973132    8.34414732794601   16.93524282278449
H         2.02917653621441    6.65364491693736   17.19114900153618
C         0.45329327472457    7.80105869917630   16.24092742938482
H         0.08170092781743    7.15279239034641   15.44332105686329
H         0.34977072248612    8.83314972136256   15.90233081261917
C        -0.36970498642995    7.58808313870451   17.51611045428564
H         0.06336031096046    8.16540566738532   18.33382962340578
H        -1.39802613556427    7.91798982337954   17.35785117851096
C        -0.33904429062712    6.11780730502317   17.90689600445054
C        -1.42033175350725    3.97997823593970   17.21967499771622
C        -2.28571616352117    3.43116436469405   16.27466081735280
H        -2.76756249258756    4.07586925353248   15.55189424016828
C        -2.53187819723495    2.07203537214702   16.26026140956079
H        -3.20205208188534    1.65907001061899   15.52106499459076
C        -1.92464576880390    1.24456632336561   17.19031038636279
H        -2.11808807562455    0.18285718434957   17.17959858498883
C        -1.07308940316930    1.78983459886146   18.13554063087838
H        -0.60113953595224    1.15209434556196   18.86807336498817
C        -0.81479551295925    3.14900922907880   18.15659027774296
H        -0.15011493687029    3.56914929747393   18.89221099584374
C         1.14183896965437    3.83962252326818   12.88707194826553
H         1.01178972896545    2.75422773503651   12.94975133346924
C         1.27366874373136    4.24278498300528   11.42066597428591
H         0.43647599064565    3.84850396879291   10.84502345105636
H         2.19903429262576    3.88011190968467   10.97998914422130
H         1.27285462164946    5.32671155151049   11.33153505835876
C        -0.08022950321041    4.51928050290729   13.49846795074543
H         0.12621766456667    5.57986597092017   13.64477727461575
H        -0.35704781183314    4.07022449962312   14.44902506210646
H        -0.92697723450012    4.42372134788065   12.81975441739285
C         3.94591394660726    3.02207250168756   13.15324796688752
H         4.39576303863537    3.56660094632781   12.31183680753909
C         3.36765733896349    1.71195278473432   12.61676057327236
H         4.19741484413962    1.08715218106081   12.28682903968899
H         2.71427314708920    1.86394651588081   11.76226868527100
H         2.82482508397931    1.16424020418085   13.38324702637838
C         5.05794730803370    2.72062814271109   14.15706034211782
H         4.71055246641881    2.05161124102387   14.94109298975768
H         5.43890839919077    3.63350565135585   14.60776185818079
H         5.88481349400020    2.23284864783373   13.64186931158616
C         2.21243983893749    3.75510505030735   15.57410442885424
H         1.36536892332357    4.42893036798035   15.76289554355732
C         1.73540963759303    2.31613571426832   15.74359950983259
H         2.54883236096687    1.61270002928131   15.58842286980553
H         0.92067448987990    2.06871358381881   15.06725874501431
H         1.37036003514353    2.18416530107579   16.76111977051782
C         3.28498177438306    4.08638695560230   16.61120247930374
H         2.81985274562415    4.23591179762260   17.58475964698147
H         3.82159060333016    4.99461883566805   16.34050611866163
H         4.00834994133096    3.28234844015530   16.70503882503594
C         2.96826289948305    9.78938596651925   12.03932558501761
H         3.45929373545341   10.73098510492035   11.77250654599036
C         1.67600624172778   10.09499869757100   12.79316411061466
H         0.91450437019150   10.43193640990385   12.09156726000063
H         1.81498349656953   10.87618498722252   13.53644905167471
H         1.31516045815112    9.19242887181464   13.28785616381585
C         2.65252280565604    9.01504069907688   10.76218912763004
H         2.05838860399976    8.13573954148947   10.99959305766176
H         3.55477770582793    8.67466756587325   10.25968102905719
H         2.08515554833634    9.63953697484624   10.07265767642422
C         5.75857103050979    8.89051562702783   12.11736574134780
H         5.67836867921088    8.00877234885420   11.46697077719749
C         6.98526801105274    8.69708763262265   13.00769714266429
H         7.84745572882910    8.45522671747532   12.38721834241768
H         6.83688547366772    7.87740725075575   13.70687279538750
H         7.21649171653311    9.60386555553711   13.56269384647811
C         5.94896111033016   10.12037738446142   11.22894569029898
H         5.94584107971275   11.04241796276303   11.80457927932938
H         5.19667325003042   10.18968532247703   10.44817805751335
H         6.91995269744513   10.03699744150992   10.74121908097684
C         4.29945985819054    9.94463961126890   14.60264076749992
H         3.25522311353243    9.96618465676823   14.94461455689901
C         5.12886829251735    9.33307662231346   15.72997553543262
H         6.19218370783575    9.47279884221218   15.56289822549089
H         4.93814593797012    8.26478883656807   15.81621837567722
H         4.87361938119691    9.80766479262947   16.67718761928312
C         4.75329211314403   11.37476082084467   14.32500721005944
H         4.64656971358754   11.96556985068703   15.23462382137737
H         4.16085890743810   11.84950866423473   13.54684598686364
H         5.80064804260221   11.40305208112143   14.03704648556900

