51
CSD_code = NUZXOX | q = 0 | S = 0 | Stoichiometry = C16H16N2O16Zn | MND = 6
Zn        5.97164050874575    4.89863930522415    5.30124634284179
O         5.56568520314713    4.00800029052332    3.71639002578885
O         7.40378901966031    2.82114643181603    3.33512126678193
O         7.12391621936874    0.01620562146601   -0.87451467640250
H         7.43637746397812   -0.60730912592026   -1.54892390927257
O         5.30126931142372    0.07512746937362   -2.15797496101016
O         3.74384981403290    5.31533287014249    2.29837002776983
O         2.95166412319665    3.67534192674346    3.43206006417204
O         6.83528971119879    3.15616253230456    6.11592778637215
H         7.40353846399081    3.30248994573917    6.88767103034363
H         7.34421440644994    2.70356951020070    5.42634884052328
O         4.03438330966539    4.44168354801465    5.99890692573495
H         3.40889822483254    4.16100659557207    5.31283748708653
H         3.67077533894921    5.20868813953624    6.46570732953325
N         3.65237984470917    4.13087740454472    2.55040686368965
C         6.27073694729210    3.19131325790729    3.05312731877444
C         5.53736497491724    2.70271366378738    1.82633729755229
C         6.08660874925846    1.80616649386726    0.92529339211683
H         7.08338730180438    1.43257879868674    1.09981569114100
C         5.34836998267078    1.40457607151817   -0.18265412911669
C         4.06324012500538    1.90347840877541   -0.38588221978550
H         3.51240031096680    1.57684006981667   -1.25455837515651
C         3.50841516293134    2.79868761151433    0.51067840498219
H         2.51294596984589    3.18665299930452    0.35718632214214
C         4.24936003591328    3.19284164996615    1.61359340680482
C         5.89408986398994    0.44274407057084   -1.17639105915185
O         6.37777214231288    5.79042419187418    6.88545351543193
O         4.53699496223886    6.97195568252914    7.26990075953956
O         4.81575968752075    9.77779930062901   11.47878260950793
H         4.50261472011034   10.40051463913518   12.15361687971696
O         6.63928279262992    9.72160492311626   12.76108040241520
O         8.20285994407696    4.48548983142170    8.30195126236579
O         8.99183179047549    6.12725638212084    7.16854551190931
O         5.10857705368690    6.64167525744571    4.48570095109805
H         4.54278588528548    6.49486808624414    3.71218164992282
H         4.59727885581203    7.09460715139353    5.17308827271652
O         7.90926428715500    5.35680504305371    4.60357916333405
H         8.53338704329670    5.64040571933354    5.28978856026087
H         8.27607725804829    4.59070503227722    4.13806953860627
N         8.29205100194694    5.67011695962979    8.05020719250338
C         5.67144795435130    6.60480164293538    7.55012818228658
C         6.40504713254114    7.09462975058008    8.77625002881624
C         5.85487971516546    7.98998068685782    9.67792853975124
H         4.85726324020797    8.36171609341730    9.50424803073992
C         6.59328581777776    8.39277512595555   10.78532660956621
C         7.87952637448533    7.89624502014710   10.98736148373297
H         8.43042835784273    8.22352887123578   11.85573026557033
C         8.43523818309790    7.00218112735526   10.09019234433372
H         9.43151502441783    6.61599001302081   10.24287498133795
C         7.69414203240997    6.60683794796962    8.98780028657546
C         6.04649835520177    9.35322995930090   11.77978648375121

