107
CSD_code = NUZYAJ | q = 1 | S = 0 | Stoichiometry = C43H56ClN4P2Ru(1+) | MND = 9
Ru        8.70148464804180    7.93873492753554   19.10661562017936
Cl        8.02039602498011    6.30206041191648   20.64031322333487
P         9.30193293612905    8.85944633043777   21.19550511345190
P         6.87587511450308    9.16479251189393   19.82738330225608
N        11.66490021747040    8.08913855070747   21.35913470383622
N         9.39243619164749   10.87383058433513   23.48862134865261
N         5.24844090751369   10.01295587756633   17.35752379754253
N         4.77066037617191   10.04525332636968   21.66394704768243
C         7.52467573212675    9.29798258114377   21.54371763170959
H         7.07960105027611    8.44964467896112   22.07318617917186
H         7.33631214277393   10.21842132412451   22.08648046234164
C         9.77605968287426    7.99717335511239   22.71635694765942
C        11.12796002719618    7.68991101933303   22.62586980799501
C        11.78472867385407    7.05072599097451   23.66056642051387
H        12.83696010597489    6.81501347128449   23.59973021562979
C        11.05345368227619    6.70518324815524   24.78720231445295
H        11.54443310575705    6.20005942055681   25.60483553491213
C         9.69876583660829    6.98965508903045   24.86832164702774
H         9.14830372698394    6.69991186807312   25.75064910859297
C         9.04274220435960    7.63895376210097   23.83523376440527
H         7.99068527661114    7.86003581613499   23.91434952982990
C        12.85612351473116    8.91751227571471   21.48246983456439
H        12.64738988199198    9.75573024875128   22.14494202811895
H        13.12011472019610    9.31304413452170   20.50236698160336
H        13.71139608922487    8.35787335871223   21.87576321404724
C        11.92861962558815    6.91261921386278   20.54256951009768
H        10.98276529056699    6.39353587621539   20.36985797963309
H        12.62553756720196    6.22071236623382   21.02859075869544
H        12.36002930193603    7.23205168056021   19.59602570387584
C        10.07981377146829   10.49970210719628   21.19991422735323
C        10.01840906325194   11.35643787719022   22.29983436897542
C        10.55129882446271   12.63559014480558   22.18264522191265
H        10.50833267422249   13.31152915685059   23.02394970154065
C        11.13894426265384   13.05333911579514   21.00139034476805
H        11.54714111097823   14.05014370849035   20.93075890580904
C        11.20802599583765   12.19552386509438   19.91577183813159
H        11.66854123233710   12.52445795278406   18.99632360258120
C        10.67968501966412   10.92362495594608   20.02211477780414
H        10.70849227733275   10.22987798022793   19.19347961341640
C         8.37885941686898   11.77790541596756   24.01375592514534
H         7.73871833666393   12.13206246941966   23.20648245001109
H         8.80198026145904   12.65126700928577   24.52665785262506
H         7.77268232777162   11.22637639240972   24.73280382582888
C        10.36755313650346   10.56423324418871   24.52290158812023
H        11.13283783878356    9.90480008520906   24.12075041580291
H         9.86083583058006   10.04944361102459   25.33777849483945
H        10.85285773210664   11.46493805132516   24.92355109692754
C         6.61328649198106   10.85361304032778   19.20449819948623
C         5.84270053853847   11.10784206107819   18.06027688186655
C         5.71112573127847   12.41991567300727   17.61620525576794
H         5.10634863554124   12.62924086653868   16.74685858281992
C         6.34444823414889   13.46402277004948   18.26537930144934
H         6.22750152616633   14.47252994018288   17.89971132093541
C         7.13138252985913   13.20702515210248   19.37461553643077
H         7.64669905227148   14.01148605453947   19.87659614406121
C         7.26056148585314   11.91165407189222   19.83743165059010
H         7.89102679573505   11.71572969998429   20.68893730920367
C         3.83245529549329    9.84779000117257   17.66193769938847
H         3.67805952689042    9.80110713170559   18.73420326050537
H         3.49099698705652    8.91137707668416   17.22252766917198
H         3.22707757191018   10.66863349597367   17.25337863266202
C         5.39599069908743   10.12359782703438   15.90760998096824
H         6.39692894215058   10.46640464223488   15.65115555984467
H         4.67127134458204   10.81289577474248   15.45678809606472
H         5.22550271515189    9.13904166580502   15.46949921725069
C         5.27376588423804    8.34898981241579   20.02374089704013
C         4.36621583636151    8.87482894972402   20.94717340258217
C         3.15446999684557    8.22494567241477   21.13930530146304
H         2.44079771787088    8.61424257055703   21.85046266314572
C         2.85409752747109    7.07690521504744   20.42512342192305
H         1.90800256271199    6.58263947393645   20.58546620578458
C         3.76255448168583    6.55661270676411   19.51811790678763
H         3.52789408563825    5.65208455734327   18.97829256189970
C         4.97277040486148    7.19399684888136   19.31683626433184
H         5.70549993089099    6.79438614759727   18.63172620780501
C         4.04392816448537   11.24139897976318   21.26641593725473
H         4.15519194860649   11.40548513143538   20.19745730439384
H         4.47388260442710   12.09554980185283   21.78876762464081
H         2.97386392286554   11.18843401951830   21.50816359970852
C         4.67203766047061    9.85880905044973   23.10673289105349
H         5.10814257358238    8.90067465396424   23.38124945738679
H         3.63841736533897    9.88880547841008   23.47233602883806
H         5.22780601157127   10.65704221218591   23.59889393420398
C         9.34721623897908   10.39734958877749   16.64381836137978
H         9.14863089720370   10.46927643532320   15.57338364401186
H        10.31790888769454   10.84731879405481   16.83748139714793
H         8.58561101089020   10.97191458642644   17.17057831289336
C         9.31357306675158    6.10457183308974   17.41265692677686
C        10.49008302633135    6.85413232801393   17.55857482038277
H        11.43133629401422    6.34091195660773   17.69779173774185
C        10.49119692185730    8.25560031924333   17.40193047278369
H        11.44158387411285    8.77984637562499   17.41538985514388
C         9.32096110201773    8.95353139092652   17.05649458530963
C         8.11681044441325    8.20615152812128   16.98892410442118
H         7.20441268338392    8.69520541788124   16.67442662901512
C         8.11689833896862    6.80662814717163   17.16056829327043
H         7.20903287361541    6.24624549810507   16.96503941378034
C         9.33185220934889    4.59673530712606   17.40603733266435
H         8.29534751292512    4.24367781186658   17.43966402351884
C         9.96377789511180    4.12093886019400   16.09238512558249
H         9.42502010361449    4.52124889959340   15.23584628214577
H         9.93233066793574    3.03604745403212   16.04255859926534
H        11.00232379483851    4.43781147295675   16.02597186548680
C        10.06666607800785    4.01002850225953   18.61155613605936
H         9.63486470864072    4.38912365523947   19.53617052105898
H        11.12751123950587    4.24895829074091   18.58862930233619
H         9.96505457768774    2.92819087578279   18.60815636570971

