76
CSD_code = NUZYIR | q = 0 | S = 0 | Stoichiometry = C32H34N4O3P2Ru | MND = 5
Ru       -1.21222650740980    2.29738128847159    3.06765562295333
P         1.03773690495543    2.57705480576120    2.16135725506361
P         0.30251384730583    1.52976379537465    4.69244534935066
O        -2.89152678991601    3.33560487471464    0.79418636328031
O        -2.09972819281109    4.64932659248512    4.77591073735387
O        -2.44946384571830   -0.46038592133803    2.79958850994392
N         1.43494130826632    4.93134222932820    4.05545803364332
H         0.66661291208006    4.25901695067510    4.04399537324715
N         3.97876220108663    1.76621623770159    1.56461916458436
H         3.65825712657863    2.62469487055794    1.99463605904122
N        -1.88242103860807    2.07733466542849    6.65185505045210
H        -1.89133590042411    1.64873814904209    5.72649736703587
N         0.85048930250218   -0.94434468087767    2.96247890110735
H         0.41302658716562   -0.06964158191085    2.67646257050721
C        -2.26059728575935    2.93699518506744    1.67040659580921
C        -1.71075227698097    3.78529667302614    4.11010463782388
C        -1.93853828361305    0.57780770398402    2.84539538144321
C         1.85105785882625    1.90471690409475    3.71915121672779
H         2.43055632284893    0.99901450603795    3.51749672652686
H         2.48494516695271    2.65427105686142    4.19713069445742
C         1.90707813455722    4.15066085240019    1.83119336083587
C         1.95713402234363    5.16913646635206    2.81004688226254
C         2.60012861044767    6.36894998502662    2.48806505644623
H         2.67070071270498    7.15016571546388    3.22766398195504
C         3.12614658887411    6.57785174632170    1.23029864101527
H         3.61275905149564    7.51589717482774    1.00712661098920
C         3.01079342799140    5.60596615459189    0.24809127920498
H         3.39387151256913    5.78180799728363   -0.74528610139477
C         2.39497868639055    4.40846310745652    0.55098554739418
H         2.29310795658552    3.65056783008711   -0.21384483343399
C         1.25384015352691    5.98794431678609    5.02109888912528
H         0.75384243121364    5.57095794785498    5.89275418489282
H         0.65152720644480    6.81741261763835    4.63265114900026
H         2.22486268526027    6.37311087493258    5.33614156737372
C         1.70018094512382    1.51415964041491    0.84392505144857
C         3.07272545376789    1.22855947661714    0.68703218040002
C         3.44591713517243    0.36090766055181   -0.34275484781031
H         4.48572846419094    0.11072833257678   -0.48011494014528
C         2.50525121278712   -0.17013041103247   -1.20366418195166
H         2.82770990457856   -0.82860504740602   -1.99686778903836
C         1.16094095478648    0.13900935013329   -1.06632894881696
H         0.43054048401168   -0.26784776291449   -1.74843307829300
C         0.76984347760692    0.97211303872730   -0.03476818740612
H        -0.27839865067699    1.21739369960793    0.10884792832717
C         5.40020232673189    1.71449192972034    1.32905536927390
H         5.90357674638541    2.23702737722415    2.13977493932958
H         5.68992198619052    2.18033210135848    0.37935320712648
H         5.73880542610557    0.67747746593877    1.32886868772674
C         0.45947546611675    2.43825727550224    6.25929907023341
C        -0.72235266372381    2.70251533354751    6.99316545907938
C        -0.63203064504453    3.53760901173817    8.11422918710740
H        -1.52476443784409    3.78942609342970    8.66323486508333
C         0.58605957695869    4.02850909386050    8.53342536567210
H         0.62970008164814    4.66674451233523    9.40378268968877
C         1.75231799243879    3.69923226802218    7.85846051226927
H         2.70736687447666    4.05980888430802    8.20802069521007
C         1.67997323444532    2.91380918107400    6.72406260096377
H         2.59105892461181    2.65887923902790    6.20315080693304
C        -3.17235175186224    2.47210820300833    7.15898812807859
H        -3.93208257072597    1.86000919428278    6.67916755005245
H        -3.39243113183336    3.52609587287567    6.95669432127053
H        -3.22061710316965    2.30092731205856    8.23617488932911
C         0.52196250033801   -0.19736209195445    5.23180645452445
C         0.71503340721284   -1.23583787467352    4.29268009427765
C         0.83594373688779   -2.54559533568729    4.77152251802972
H         0.98621579836326   -3.35436220092812    4.07504983468437
C         0.75171904813131   -2.82352569095111    6.11892468562286
H         0.84228960808842   -3.84557592647096    6.45661954618602
C         0.54195051527960   -1.80545139993203    7.03559737002039
H         0.46758840486886   -2.02241408558410    8.08993161969555
C         0.42427395084612   -0.50575577499429    6.58663068710061
H         0.25858733074245    0.28832233123370    7.29945411613480
C         0.81760224374064   -1.97026946991628    1.94931696245017
H         0.87794095351276   -1.49039828840845    0.97522124912886
H        -0.09810251592664   -2.57109557303371    1.99138115753097
H         1.67984670693221   -2.62982403679740    2.05956434745633

