92
CSD_code = NUZZOY | q = 0 | S = 0 | Stoichiometry = C42H45IrNP3 | MND = 6
Ir        5.60030345972505    2.99090579878088    5.46996352943950
P         3.51306374266944    3.55880466904370    6.37245694662036
P         5.05239408582680    3.36621426401599    3.22221566474995
P         6.64946483197367    5.05180617756157    5.85353286090279
N         4.03709385944132    5.95032994306432    4.52529340787897
C         2.25613137833355    4.58246859644268    5.46300573385813
H         2.08605405244024    4.10124801885432    4.49565944803832
H         1.30918643356108    4.61822535836417    6.00521314139874
C         2.78813699036794    5.99366178367036    5.26355010784411
H         2.03679240748201    6.62325516418601    4.75157508314968
H         2.97128225885002    6.43884220080742    6.24586289140212
C         4.97470190721503    5.06138819037042    2.46361134682994
H         5.93310541581411    5.54916473279622    2.66313968043669
H         4.83204183232271    5.00372607376397    1.38276303856261
C         3.83868087808540    5.85549827619769    3.09058289812328
H         3.76127739246697    6.85590782083690    2.62558380589027
H         2.89819221629401    5.33204252096845    2.89531382372753
C         5.71486535871597    6.63085892411579    6.15075085205991
H         5.02291013142081    6.44635814867219    6.97741188264203
H         6.38921148025904    7.44065863040978    6.43595315701152
C         4.94613305067063    7.01923846319423    4.89684914660109
H         4.40801275496194    7.97300024130265    5.05104793290056
H         5.66135265038425    7.17651702084486    4.08421952255595
C         3.42281888054235    4.36417323039653    8.02630179650451
C         4.59115057386373    4.57419712930197    8.74573650498366
H         5.53657130530976    4.27686697869606    8.31237866747249
C         4.55670602133389    5.13855600924148   10.00909622258706
H         5.47846921100913    5.29116249087353   10.55196841761843
C         3.34495635072396    5.49684481746760   10.57251826650523
H         3.31108888723476    5.94037532753478   11.55696232515110
C         2.16993232553326    5.26793232007254    9.87374113598112
H         1.21901764433198    5.52710220873797   10.31734777899879
C         2.20552328210382    4.69848448373531    8.61501156928473
H         1.27541071009469    4.50048386255007    8.10123570153929
C         2.47174980118243    2.12910108511727    6.86514826562607
C         1.21106325640002    1.83376808919063    6.36145343623552
H         0.75781813373125    2.45207752673803    5.60026420981435
C         0.52128970629936    0.72352791862658    6.82020034275157
H        -0.45917641550929    0.50278900655466    6.42128687077681
C         1.07807761177556   -0.09980579952096    7.78226461838752
H         0.53378785346951   -0.96291811560162    8.13686262845673
C         2.33916702853812    0.18423901052695    8.28246770106989
H         2.78314410143215   -0.45879970814138    9.02810722064230
C         3.03060962688860    1.28788886638798    7.82431102275587
H         4.02346841927648    1.50654979029230    8.19326579572180
C         6.14312740784725    2.51979471490397    2.01174779982862
C         6.90743880799361    3.14548643366748    1.03469827274785
H         6.91526651963105    4.22156487024745    0.93935638217801
C         7.68916131898713    2.39192589698679    0.17453638661062
H         8.28019909329161    2.88913564899314   -0.58221203425764
C         7.71628422192579    1.01279396907993    0.27813987772349
H         8.32665641308695    0.43120411134756   -0.39726719149316
C         6.96288956552942    0.38297420559505    1.25637413610562
H         6.98581539443014   -0.69296821868482    1.34819391449799
C         6.18587461572979    1.13169375063945    2.11760784166614
H         5.61090019763391    0.65136018351270    2.89760969223600
C         3.50395939675725    2.65023216281658    2.52811917661352
C         3.14588429121475    2.82693647765534    1.19370192692816
H         3.77115011170578    3.40761882983158    0.53029778415523
C         1.99691903455643    2.24343103999342    0.69432408762898
H         1.72784177594284    2.39230423251474   -0.34184493559372
C         1.19645360270297    1.46077995716144    1.51165408596016
H         0.30057413775813    1.00541220527234    1.11539510693368
C         1.56081999224324    1.25379693325051    2.83020636139467
H         0.95755035531367    0.62837201409501    3.47248442155103
C         2.70842976134419    1.84400925219650    3.33050414608684
H         3.00373064226692    1.66757945141270    4.35601018174931
C         7.91532605573358    5.66392821430139    4.66384621509864
C         8.28204290553793    4.86391900136171    3.59053340117399
H         7.80075525741407    3.90396618764353    3.46139173019241
C         9.26157993131736    5.27098622445182    2.70152424994155
H         9.53174565063504    4.63105388604813    1.87372535500014
C         9.89296725113975    6.48891582442171    2.88000495472626
H        10.65629219715685    6.81414817255330    2.18825087300063
C         9.55277473437762    7.28461417201620    3.96266564656558
H        10.05666731113859    8.22794745782977    4.11854247607064
C         8.57910126837610    6.87363687644681    4.85322895730668
H         8.35265852065171    7.49579034845805    5.70758967001450
C         7.79502353004753    5.07920371318129    7.28825323124043
C         7.68355313737966    5.90789118616988    8.39784532611527
H         6.86292581688821    6.60429612172977    8.49145413403834
C         8.62184232694588    5.83893738422860    9.41454353846781
H         8.52581011135650    6.48869458197733   10.27353773373301
C         9.67682132531364    4.94766215682054    9.33591546746427
H        10.40627396193801    4.90090052442254   10.13132368776236
C         9.78819526111558    4.11109638324457    8.23634861000007
H        10.60465748383851    3.40686399286181    8.17245993051233
C         8.85235807564419    4.17491135320585    7.22332865730411
H         8.91911456740346    3.51258384033432    6.37091060532275
H         6.96515132439523    2.42492581333029    5.01846029033595
H         6.03926612235178    2.53133613721847    6.87827969376654
H         5.10613632915320    1.53613477622267    5.30711174210750

