107
CSD_code = OBACOM | q = 0 | S = 0 | Stoichiometry = C46H44CdN10O6 | MND = 6
Cd       -4.85319506243010    1.37752703993424   10.61954146864837
O        -4.95194570864797    0.61693473971464    8.68850199626941
O        -2.75014573396886    2.14766339656183   10.76417531200258
N        -3.41821494436639    4.47122263499422    8.82462448787022
N        -5.15469644822512    3.49733517887092    9.70333444547874
C         4.46422574871479    8.74709376515000    3.82136663255067
C        -4.77419142243809    4.58517616526189   10.41318829847562
H        -5.27720573767819    4.91783270604964   11.29988882402900
N        -3.73617475479719    5.19825109001537    9.90809355746235
O        -3.59684833009643    2.90423839996189   12.71150015223004
C        -4.28840011931704    3.45299271611835    8.71086539160859
H        -4.29327229382477    2.70894281666350    7.93826061639683
C         3.30596664045592    8.41044657327995    4.57565219828713
H         2.85834838233128    9.19400543596157    5.17321381751507
C        -2.31020749763301    4.77696881648337    8.03028930582483
C         5.16095100190787    7.65213851855082    3.07998189940407
H         5.84696300333613    7.15484398940932    3.77565506126898
H         5.76358871359743    8.06131866721842    2.26613666017340
C        -2.69275562199594    2.83325603957415   11.78217222504108
C         2.75418129501744    7.16635995606654    4.57427421700344
C        -0.09937784972810    5.42788915702161    6.45146370449015
C         4.94612397005521   10.03079823357603    3.79690866653508
C         1.62116573769262    6.90548897474608    5.41521322250442
H         1.24317785505767    7.76927164560323    5.94497627378243
C         1.03467629157643    5.70569236625359    5.59927987593009
H         1.41981295674871    4.84175305754757    5.07420067754259
C         4.16357943856442    6.61804039751218    2.54209628855079
C        -1.53142359588799    3.74699952537132   12.08431259175276
H        -1.67083259828778    4.67682034769872   11.53443434136570
H        -0.60841579320378    3.27946794651595   11.75396493304980
H        -1.49596982735306    3.96568952621541   13.14666148154467
C         3.24656822941604    7.26849863143655    1.50389260779829
H         3.83493850250459    7.69413935094003    0.69404240029423
H         2.65041074750662    8.06285112457143    1.94738186802764
H         2.56933375407693    6.52996772628472    1.08054673848512
C         6.08837339756233   10.39259653033192    3.05575484504950
C         3.33391043513548    6.08047347860240    3.71764188092722
H         2.53198792845555    5.45224459128791    3.32605974281025
H         3.96868365804207    5.44778992933173    4.34790953590963
C         4.33379193356053   11.08380433655455    4.50661337587621
N         3.83483797889921   11.94075997173065    5.08427344093168
C        -1.72409172989843    3.80178099233745    7.22894079734004
H        -2.10514569153328    2.79294090413107    7.23492135187846
C         4.92842007461631    5.46709854241691    1.88743164973443
H         4.23766979661701    4.71106645693954    1.52086039462914
H         5.60699140286901    4.99681528037423    2.59625365140036
H         5.51313175318809    5.83086432672442    1.04595950206504
C        -0.63448682134601    4.13264092238107    6.45307711307992
H        -0.18029674306253    3.37383118867520    5.83290977047800
C        -1.78262312922804    6.06482284522535    8.06453710365476
H        -2.24109491085036    6.79840128699628    8.70887553511298
C        -0.69329723728395    6.38391626463023    7.28426684236625
H        -0.29893388748404    7.38642124280716    7.32568672315948
N         7.01677959437588   10.68877859394578    2.44943505647923
O        -4.75363568515224    2.13850705873744   12.55059900107273
O        -6.95592006530189    0.60541287995507   10.47441099742512
N        -6.28641581257755   -1.71659221798346   12.41605983528130
N        -4.55095064246564   -0.74186233274872   11.53629291528107
C       -14.16552484770308   -5.99149910258643   17.42696597733697
C        -4.93108342834277   -1.83013157161753   10.82690407428048
H        -4.42834344655479   -2.16260471438661    9.93997977512724
N        -5.96871390388952   -2.44351884356353   11.33245909288925
O        -6.10815691261666   -0.14951078139567    8.52690730015926
C        -5.41660219920912   -0.69796499453126   12.52930575042820
H        -5.41163178496446    0.04613666576342   13.30188136725104
C       -13.00811109026738   -5.65569300925175   16.67098580686266
H       -12.56146652698303   -6.43979110760668   16.07338809047522
C        -7.39394394419867   -2.02265088581801   13.21094300419098
C       -14.86127996972614   -4.89582044048601   18.16820206332674
H       -15.54799295187547   -4.39912079791653   17.47279911634375
H       -15.46307557781450   -5.30423659638193   18.98305563882429
C        -7.01256026458098   -0.07966265006037    9.45602792766149
C       -12.45589338502617   -4.41180830744803   16.67099259312771
C        -9.60393703191755   -2.67399245686311   14.79076179459400
C       -14.64748110405047   -7.27511870473564   17.45322415705643
C       -11.32360675150777   -4.15162098496002   15.82880619593511
H       -10.94599196964139   -5.01570933194345   15.29926842315866
C       -10.73743216978648   -2.95184001098260   15.64365328335815
H       -11.12244377158656   -2.08773242796371   16.16854334258991
C       -13.86334477167110   -3.86127552664076   18.70415307394730
C        -8.17320415212802   -0.99393990445912    9.15282900863999
H        -8.03370737257637   -1.92378319667690    9.70263451987104
H        -9.09675877122675   -0.52700596144513    9.48251443717961
H        -8.20767765386759   -1.21240331954217    8.09039007241530
C       -12.94579024424201   -4.51074099600140   19.74247075225652
H       -13.53375495245370   -4.93583632413321   20.55289828799827
H       -12.34973731705627   -5.30535748790130   19.29932023102197
H       -12.26848185270752   -3.77178461636154   20.16496027344857
C       -15.78788133952405   -7.63662570143818   18.19735995442299
C       -13.03428085978024   -3.32512741429030   17.52754512536898
H       -12.23157651374761   -2.69729626909390   17.91816835982851
H       -13.66907345622537   -2.69230174090708   16.89745020759597
C       -14.03705713226834   -8.32891092802349   16.74309635867208
N       -13.54072909581587   -9.18746504915366   16.16546559254196
C        -7.97937792814531   -1.04778564287002   14.01319157534336
H        -7.59821800111625   -0.03899008124976   14.00752027385252
C       -14.62747983832710   -2.70938022238782   19.35799467497405
H       -13.93634340130255   -1.95271356300322   19.72255109908921
H       -15.30689832935444   -2.24025918482271   18.64921870905616
H       -15.21118611975091   -3.07186087003012   20.20072036554098
C        -9.06859620948340   -1.37884031754670   14.78948714659965
H        -9.52229839850659   -0.62026169877634   15.41029202972327
C        -7.92179003343441   -3.31039429220825   13.17635655655797
H        -7.46376983438768   -4.04373562169261   12.53142828951884
C        -9.01070944657987   -3.62971410103747   13.95712914283657
H        -9.40529435742994   -4.63212832594099   13.91549848161588
N       -16.71403411190722   -7.93292031751561   18.80713732199854

