66
CSD_code = OBAHUW | q = 0 | S = 0 | Stoichiometry = C32H24N2O7W | MND = 6
W        10.04807833167457    9.60574577270408    7.74020848621622
O         8.42381827753141    7.05620231698132    6.89497304525128
O         9.42678722673078   11.11981042675098    5.06565146278869
O        12.39577285294247    8.37097627744580    6.05798144141742
O        12.03004823488270   11.98784108305234    8.22234586028515
O        11.08927299971297    7.81078850911459   10.09509389188484
O         6.84727713503230    8.99450414968955   14.03270380525563
O         7.15532149132329   10.58905227176508    8.58207836803394
N         9.24141105795663   10.98444573310622   12.49682399831271
N         8.02199077971485   10.28260414781111   12.53545803045246
C         8.95627417731476    8.01775255115191    7.21497890043976
C         9.55527144469869   10.60932405737683    6.08124745579285
C        11.54852336314879    8.82804848895574    6.67407146630977
C        11.25507649253919   11.15342436918296    8.15008690953676
C        10.67597445846685    8.51707240483841    9.29398324794777
C         8.41125917274721   10.35352413526428    8.92955333569896
C         8.51277614008251   10.45244700381500   10.35696665671890
C         9.72070762268153   10.97641412766375   11.11410389720286
C         7.56070231639829   10.06364422452322   11.26207801549099
C         7.80912024604482    9.65637442612098   13.73573965287510
C         9.01984281176495   10.00755096227239   14.58886887328338
H         9.32612286210636    9.16494046030922   15.20460288417542
H         8.75774013884021   10.84058580335658   15.24526235802066
C        10.07433355640500   10.44102931951845   13.55823565251989
C         6.70881779337435   10.44744000376584    7.24524824377711
H         7.03073586608984    9.47882435271248    6.84286216091173
H         7.14626875109502   11.24654896357483    6.63324901861645
C         5.19114457369251   10.54712680752294    7.25123382044297
H         4.76969580946225    9.75887957588252    7.87007192412125
H         4.81201430413326   10.44870279878517    6.23854759537690
H         4.88051215450331   11.50680995256054    7.65542720245257
C        11.03655881450707   11.48041723354230   14.06498102506205
C        10.62809142869768   12.80250754234128   14.18959320956890
H         9.62055117027459   13.07285834189305   13.91259547410994
C        11.51227871686683   13.76528280393021   14.63852143374549
H        11.18955715065598   14.79216963874211   14.72284718975878
C        12.80928321423966   13.41521206076365   14.97560648795659
H        13.50028434719981   14.16781025690882   15.32481313724544
C        13.21905738547210   12.09834583168876   14.86091594697286
H        14.22957266339326   11.82015712310281   15.12091202585967
C        12.33666907749024   11.13478067400269   14.40387926632139
H        12.66214329547477   10.10858623039030   14.30598130067040
C         6.30392105149592    9.36669344456983   11.01667991919944
C         6.27845798604057    8.28616097533053   10.13663748254177
H         7.19665239499498    7.96394056055810    9.66248860599179
C         5.09284497448775    7.62311160579730    9.88815190101501
H         5.08069211400887    6.78380393939170    9.20847193283467
C         3.92489402464516    8.02880558415588   10.51494145923239
H         2.99901986417618    7.50868749487251   10.31921862936390
C         3.94875055085127    9.09503594788046   11.39815786605318
H         3.04163143507685    9.40647334200886   11.89380848887475
C         5.13230242119637    9.76179459416276   11.65389801821159
H         5.15192355836612   10.59381805814255   12.34088673782822
C        10.12857207455179   12.38309619057444   10.73880962308074
C         9.21952267324457   13.27216290240758   10.18358788821430
H         8.21057168982733   12.94781254963842    9.97429919254607
C         9.60167125646938   14.57048453548665    9.89455010451077
H         8.89016909203878   15.25335161627078    9.45378126682175
C        10.88961312492761   14.99437251376104   10.17131272592085
H        11.18617126751080   16.00786340954058    9.94543338075090
C        11.79740786075298   14.11475527753917   10.73621626519472
H        12.80376548238850   14.43881305491198   10.95465827758427
C        11.41883271211202   12.81542909200983   11.01707752135920
H        12.13201098372343   12.12886180422238   11.45008370411802
H        10.59798943995369   10.31360986935005   11.00225205186768
H        10.63617225976270    9.55679842249392   13.20401279798711

