68
CSD_code = OBAJAE | q = 0 | S = 0 | Stoichiometry = C33H26CrN2O6 | MND = 7
Cr        8.57892823301040   19.44739551828129    2.93403242668538
N         8.05574093853146   23.22122337643539    0.98706550294157
N         7.19953340743298   23.01366084460296   -0.11918033953862
O        10.49290153614947   18.82555522520657    5.16714906539095
O        10.46412455383027   18.00956783400774    1.08559532751228
O         7.84097311504578   16.77164939388714    4.04820310396186
O         6.69769042653286   20.87902057781016    4.78659448682413
O         6.43474377051641   18.98084705375727    0.76215142439552
O         6.22443796799439   24.28199251810385   -1.77066641139689
C         9.81827313599406   19.17177215983973    4.30145106564119
C         9.71091313262035   18.55610384777880    1.76064327627033
C         8.03230586610250   17.80111358990921    3.55790347401871
C         7.41958764204705   20.31766463249340    4.09011828603086
C         7.18323808116256   19.79551689556239    1.50070983323173
C         7.04630459482591   21.15292794089464    1.11276322545576
C         7.70397859996817   22.21595147337407    1.97894275106417
H         6.97731894915582   22.62225633145491    2.71244596067055
C         8.91721817502345   21.67520676411253    2.68517060654258
H         9.21354901721189   22.21348613543702    3.57995822145049
C         9.89232642559601   21.06785612061803    1.90082029835071
H         9.68814407379711   21.01272657206906    0.83073440947218
C        11.31571800123828   21.02532152530506    2.23216399190240
C        11.81361635616160   21.33697434835504    3.49985148765109
H        11.13799068761094   21.60267965348107    4.29906144711884
C        13.17101317440597   21.30771776496156    3.75125879791076
H        13.53613862393584   21.54997436043017    4.73838688545158
C        14.06482983353023   20.96769327723676    2.74830220218102
H        15.12505867677213   20.94235392114043    2.95072551301737
C        13.58821372397069   20.66012586798226    1.48527431179941
H        14.27668695782689   20.39431613854759    0.69651985049112
C        12.23084071464470   20.69097391741107    1.23054983955480
H        11.86841669519232   20.44921729890467    0.24081617837703
C         6.68161442224474   21.73609279516190   -0.08332557621335
C         5.98625941394117   21.17658462936954   -1.22896703534433
C         4.82325919667279   20.42929352820221   -1.04662202228572
H         4.43587172887263   20.28686818192683   -0.05018348210167
C         4.16307286982243   19.89806641609226   -2.13740404299846
H         3.25907459368458   19.32553884402726   -1.99098186942909
C         4.65276588469763   20.10348126595284   -3.41705705218434
H         4.13403252538776   19.68726014536071   -4.26786666464660
C         5.80563360909409   20.84912767332378   -3.60478002565112
H         6.18695622434273   21.01366447482307   -4.60138711159569
C         6.46912027015812   21.38813336498413   -2.52047364879146
H         7.36994940964608   21.96374766167337   -2.66905689918391
C         6.92430767834042   24.16743137741915   -0.79394285871573
C         7.70635279544129   25.25542249213576   -0.06265759285388
H         7.14153698692357   26.18343922906019   -0.01359141742580
H         8.63415304255634   25.44274445504503   -0.60862262669850
C         7.99984097855244   24.63367983442911    1.31193292630996
H         7.16168562970389   24.84691078222684    2.00270046794544
C         9.29317863925251   25.07670770393576    1.94314912905237
C        10.49340524138159   24.48929079370533    1.56251015587281
H        10.49130996376010   23.72252039349741    0.80374832502289
C        11.67866565601448   24.86484798440713    2.16696593276149
H        12.60201638086516   24.38564288690228    1.87756002723448
C        11.67851491621062   25.84573471000682    3.14452881882234
H        12.60341900157148   26.13902246907343    3.61794845407558
C        10.48842200668007   26.44799446462734    3.51513830223868
H        10.48285894083940   27.21530763518270    4.27496845957152
C         9.29957493463372   26.06028842681233    2.92199971954100
H         8.37025275703583   26.52240232791971    3.22393279367298
C         6.56703894562419   17.57593969065071    0.88877972935875
H         6.23031073268430   17.26900673223039    1.88684422795131
H         7.62113023019258   17.29132800481252    0.77625890124745
C         5.71382886182018   16.92802205137375   -0.19101082702855
H         4.67065676219623   17.20064714409020   -0.05820485679196
H         5.80874893997055   15.84796270401809   -0.13466677920692
H         6.03532474141872   17.26530384625016   -1.17308048199926

