57
CSD_code = OBAKAG | q = 0 | S = 0 | Stoichiometry = C22H28N2NiS4 | MND = 4
Ni        0.00009922440373    7.80975589789928    0.00019994022009
S         1.33333064605463    6.04705061806130   -0.18234862318789
S        -0.02639516349674    7.08386539535530    2.09488613317093
N         1.67847708714598    5.02205906315065    2.25970245796544
C         1.06377226422543    5.92224245891792    1.49432335202560
C         1.44254064174001    4.93115001034948    3.68723042924415
H         0.96661522760458    5.85961294793712    4.00948753509302
H         2.40814441861025    4.83021365189312    4.18974104553176
C         0.55454618687451    3.73470717235511    4.03500839230041
H         0.49429832937771    3.66074902061728    5.12245508248229
H         1.02368248306548    2.82078541732495    3.66096871962057
C        -0.85260523179317    3.86331873769066    3.45678241686346
H        -0.79683502113754    3.93361499093358    2.36889823295595
H        -1.30940729152489    4.78500618262464    3.82190552519248
C        -1.72284108054838    2.67322915643204    3.83832886358073
H        -2.71871902225882    2.77946785468058    3.41591034399074
H        -1.81481939200640    2.59861118578583    4.91976686796464
H        -1.28874322470846    1.74712036212642    3.46700135453501
C         2.53228508668542    4.04535784560005    1.67679417564529
C         2.02425027026856    3.12772589560176    0.76648244113063
H         0.98048887940456    3.16467974114679    0.49625756171180
C         2.86092940022219    2.17793952195352    0.20954237511574
H         2.46387735447317    1.46662738726806   -0.49854886460121
C         4.19999458243081    2.13821757110050    0.55945574182485
H         4.85138228328761    1.39733892254994    0.12150622239138
C         4.70456673932912    3.05344600080652    1.46764988567114
H         5.74965668312340    3.03056963009350    1.73663487920352
C         3.87485043427084    4.00791036999672    2.02780233317671
H         4.27009590630162    4.73466911707076    2.72134495199453
S        -1.33365455776592    9.57237598529831    0.18246289808225
S         0.02592642298396    8.53529595297993   -2.09468509492263
N        -1.67859089593197   10.59741324454885   -2.25967150905599
C        -1.06397283695000    9.69720407673245   -1.49423943239074
C        -1.44263635692651   10.68822658195085   -3.68720465707865
H        -0.96680433480389    9.75970086689620   -4.00941994980625
H        -2.40822199121377   10.78924311458772   -4.18973632752687
C        -0.55449322145656   11.88455531848873   -4.03498034331791
H        -0.49421439710244   11.95845821024592   -5.12242482674147
H        -1.02354197294299   12.79854186843585   -3.66098879580986
C         0.85262607721500   11.75579954145233   -3.45670601967801
H         0.79682172103758   11.68557731843218   -2.36881872641248
H         1.30933124740781   10.83403806031762   -3.82175780286929
C         1.72300901320608   12.94576745839381   -3.83830155330275
H         2.71885972378776   12.83944245228873   -3.41584232378964
H         1.81504028164531   13.02030698342082   -4.91973815367892
H         1.28901233880801   13.87195433492354   -3.46705060795151
C        -2.53232174240254   11.57422147585346   -1.67683484803687
C        -2.02424074844954   12.49183317633399   -0.76653018572532
H        -0.98049563447233   12.45478765891872   -0.49624862884009
C        -2.86086385019590   13.44170477443097   -0.20964285428757
H        -2.46377952345291   14.15300147195730    0.49844601873543
C        -4.19991150218941   13.48153494716925   -0.55961336168696
H        -4.85125602300799   14.22247698429716   -0.12170056274825
C        -4.70452592441705   12.56632320455753   -1.46780330908478
H        -5.74960034203080   12.58928740731948   -1.73683321035157
C        -3.87487038061089   11.61176453177972   -2.02788709777527
H        -4.27014929119432   10.88502087066554   -2.72141850676179

