64
CSD_code = OBALUA | q = 0 | S = 0 | Stoichiometry = C25H23BBrClN12Ru | MND = 6
Ru        2.65144572791747    3.10867186160168    1.83164597234269
Br       10.55254181198121    4.33236120056946    6.82375666429205
Cl        2.74184078524559    3.12914454267695   -0.56396957503611
N        -0.09919498364034    4.09793690349840    1.31280710133345
N         1.26589794533045    1.61710218323406    1.84955840151755
N         5.19767288493786    1.94872314506727    2.72996614045575
N         4.19575638262858    1.81932473499483    1.85326255356994
C         7.72874607180823    4.40106727500677    6.38736016740785
H         7.69662683984559    4.93965563184211    7.32229328235942
N         1.07762294883165    4.38557912986719    1.88380220443579
N         0.06001606418088    1.75772432006024    1.28423315078493
N         3.92191846687376    3.04014358788419    4.47294483900582
C        -1.04437692991466    5.00229769379881    1.65167774848758
H        -2.05238554015787    4.92256989725453    1.30120427432787
N        -2.58257890111685    2.76849170736322    0.31200316014492
N         2.74264872410075    3.07094730805257    3.84499698332507
N         5.03952786587839    4.43897148658010    2.72689663863750
C         1.22738134726231    0.48301764582556    2.53354182935941
H         2.08098011207001    0.13520244707020    3.08446067970739
C         8.93802812013425    3.98112318168468    5.86564107445352
N        -1.38258400498497    2.85303091112680   -0.27914528315604
N         4.00759405002003    4.55200463314395    1.88778258756879
C         5.45486765032006   -0.00597699727184    1.73881395708947
H         5.83124996187889   -0.96488998700842    1.44814275866624
C         4.13225985307250    5.68920227304073    1.22517444510597
H         3.41355232478953    5.98010445583084    0.48092335403966
C         1.79487191682500    2.83590093641774    4.74174170783717
H         0.75400692247276    2.83163685564450    4.47382960561406
C        -0.03096382153058   -0.11597434952544    2.40625400081778
H        -0.35757738677195   -1.03755529980114    2.84078842149441
C        -3.46073131248161    2.71166880950645   -0.66366216203932
H        -4.50708208360790    2.63922706791827   -0.44295008376390
C         3.73042797319871    2.74580631935765    5.77141630744608
H         4.54794134005999    2.62026337570322    6.45029142963223
C         2.37653675028542    2.61969625236396    5.99122740769361
H         1.88069873618747    2.39927110031097    6.91373457325510
C         5.96472852616641    0.84385865427903    2.69499272085526
H         6.79981846418583    0.71317940061772    3.35169086797923
C         5.29033635579037    6.34674291673813    1.64659333429873
H         5.67042510828807    7.28541687560763    1.30040234262718
C         8.99328758994599    3.33419740186233    4.64511269903363
H         9.94426409056680    3.04493964843250    4.22424258141083
C         0.88981572004161    5.48856736382133    2.59265042100403
H         1.69263546409529    5.93093504422326    3.15197655797491
C         4.33596615238832    0.65837351302004    1.23398914667326
H         3.65323060288010    0.35537845540868    0.46146861235127
C         5.83603519217711    5.51856629407101    2.60011664426739
H         6.72802509057182    5.63243905058405    3.18136200626700
C         6.56488400923331    4.13080067345120    5.68927669403138
H         5.63450053513789    4.50524390607032    6.08818820978204
C        -0.43691498426699    5.91835396877257    2.47508501341140
H        -0.88305629195880    6.77861312579838    2.92875716307850
C         7.81513261218252    3.07570456042308    3.96712555175927
H         7.87822839783666    2.60984113289780    2.99578594128585
C        -0.17137656299029    2.92792885237038    0.45429778550657
H         0.70177429652846    2.99565556729637   -0.25245953550871
C        -1.49244422728706    2.84961798214127   -1.63133580248477
H        -0.62552119939672    2.91116917998070   -2.25636637607104
C        -0.75636051404394    0.72948263852519    1.60312619249503
H        -1.76683773679497    0.68204201532006    1.25394376243157
C        -2.82877813685275    2.75895596944588   -1.91842475559100
H        -3.29324708742197    2.73001614818908   -2.88155555375438
C         6.56774506794614    3.42811009101081    4.48400822335289
B         5.21891885113098    3.20199732895409    3.63630323332376

