58
CSD_code = OBALOU | q = 0 | S = 0 | Stoichiometry = C23H25BBrClN6Ru | MND = 8
Ru        3.18774973947887    0.34215530224946   15.38112410830537
Cl        3.27383659244140    0.97984570195083   17.70890842708926
N         2.03098923617172    3.06161225294287   14.74621608048441
C         4.63431042012051   -1.21268735892438   14.82355172349090
H         5.49800727620942   -0.75050242819366   14.33823790252103
B         3.21218966094974    3.16257738370887   13.76086066583022
Br        3.18800904246126    8.15408888564671    9.88771172864188
N         1.78707739899639    1.90910345093638   15.38404545389639
C         4.56730954295252   -1.16980949287102   16.20993657589747
H         5.36562109034301   -0.66211103047262   16.74375397957295
N         3.13694902710214    1.92963841557739   12.83644655690969
C         3.89874703104393   -2.25464162985648   17.02779223534900
H         4.40100141840773   -2.31945818220157   17.99395796630753
H         4.03642485593057   -3.21469828327570   16.52406917086109
N         3.03002367905065    0.66766878649592   13.27030719342399
C         2.40446836849888   -1.98506862934454   17.27845168775910
H         1.85102350686282   -2.92947642490994   17.34305406494909
H         2.30168825507371   -1.47457032684771   18.23652452912761
N         4.44383086161955    3.00704000931475   14.66491612633064
C         1.76159579411215   -1.11372239707181   16.22629285404810
H         0.86866179608990   -0.60742225853601   16.58811915295878
N         4.65145314453726    1.84422579355946   15.29293006942211
C         1.85645101194669   -1.35099746432207   14.86437876522107
H         1.03850305333058   -0.98326155093284   14.24167132904916
C         2.55577133804557   -2.58883517738619   14.32402180919910
H         2.06175685828804   -2.90520574929723   13.40202319114424
H         2.40993557373384   -3.39708460908324   15.04416843625515
C         4.06183628904512   -2.38914464746503   14.06226900573169
H         4.61225064374878   -3.29004217904945   14.35899725401401
H         4.25384049730941   -2.25030667586775   12.99795270329974
C         1.22699961023434    4.02319982226254   15.22612996175799
H         1.29407713600135    5.03522787735053   14.88411645281972
C         0.41242886457039    3.46620481913925   16.18606761769056
H        -0.34540138337146    3.94938849197577   16.76642005137384
C         0.80825356567518    2.13284661544862   16.25060835221566
H         0.43045827031463    1.37029896010781   16.90200530001700
C         3.01403930588638    1.96361608288235   11.49914987006169
H         3.07496670172040    2.88058698719034   10.95134807581410
C         2.80986092372605    0.68062522457579   11.04979926228320
H         2.67066859838541    0.34922986889730   10.04202558807644
C         2.82037825202478   -0.09469885412531   12.20583450606434
H         2.66100635333966   -1.14786018139964   12.27182181197046
C         5.34718526092264    3.91142552365234   15.07206084832105
H         5.32478646517699    4.92454726590183   14.72774870301411
C         6.19262892911687    3.30062245368202   15.97104824402539
H         7.02621998159491    3.72996728621906   16.48621779040541
C         5.70996498570942    1.99922264864858   16.07740768991928
H         6.08901058065022    1.21298108292926   16.69887021769438
C         3.20945720215323    4.47373698754889   12.82491411259167
C         2.01773358588693    5.05119172666301   12.38416871021813
H         1.07263842755499    4.63345022310207   12.69671487206968
C         1.99820417833523    6.13437959817067   11.52356384111964
H         1.06150814180294    6.56507978119265   11.20433953059858
C         3.19614468439129    6.65295076253905   11.06738778123073
C         4.39830652000400    6.07659261371493   11.43368924466973
H         5.32821892655758    6.46268675184324   11.04487533653667
C         4.39114752872829    4.99358936217759   12.29505295339240
H         5.33559539901184    4.53010073124516   12.53642252695093

