52
CSD_code = OBAPUF | q = 0 | S = 0 | Stoichiometry = C16H27Br2CdN5O | MND = 5
Cd        5.70235461655129    7.68441303530026    6.07036915718644
Br        7.07379857078097    7.63902904424395    8.19368629598461
Br        5.58790370244093    7.82756849694127    3.56566167230573
O         0.96796004033919    6.23048056767905    4.54315705426944
N         4.65829650458788    9.79917843737285    6.59588906888805
N         3.68848521332253    9.84398241696738    7.52147515135563
N         3.87134818025233    5.25843607031126    7.30064424504047
N         4.81497165282002    5.46408726967287    6.36820027046350
N         3.26927052105770    7.51611815922624    7.58698804955171
C         4.66285972993473   10.97159758214321    5.97865406103489
C         5.61080973003938   11.28467065409155    4.87941756774981
H         6.57548530213187   10.81132907286977    5.06526318204052
H         5.74725212794991   12.35940514977172    4.79432474651391
H         5.22725168133982   10.90548316759176    3.93150657665375
C         3.66672473956483   11.79272476894883    6.52880666154041
H         3.42861325770176   12.79715229182255    6.24531786223150
C         3.06177240764035   11.04221647244511    7.51464633437250
C         1.95181470187090   11.39770045673528    8.43580205392427
H         1.11064099860758   10.71378241984798    8.32189242812709
H         1.60960795303542   12.40394016272759    8.21169058869899
H         2.28283127967476   11.36876299671069    9.47376163740253
C         3.47815086361310    8.71070144164604    8.38305039624823
H         4.37770857867999    8.56910195239966    8.99641542130045
H         2.62129473493368    8.93296434941149    9.03899307112827
C         3.61446301595455    6.28240246984318    8.27744929752721
H         2.81561496507869    5.93295043080155    8.94911409367099
H         4.53053181323194    6.45120712493873    8.85775212925023
C         3.30490857063966    4.03804733448018    7.16105906636631
C         2.23145988745601    3.52107422837995    8.04749680626912
H         2.56584280515718    3.48064568651546    9.08399052700311
H         1.96145672365925    2.51743376694361    7.73222998118822
H         1.34185304440706    4.14874811268339    7.99332654833273
C         3.92772724283348    3.44032329903766    6.08635261089300
H         3.73526732118815    2.46452342134032    5.69078065881264
C         4.86754789666256    4.37183933479706    5.61973734132596
C         5.80830781879807    4.23775701933924    4.47829063381324
H         5.37384972235176    4.67017361756572    3.57616172574892
H         6.02423937058170    3.18932920572773    4.29056573789688
H         6.73866768202304    4.76547392683468    4.69070265127369
C         1.94536407676138    7.45084693010323    6.97267898964368
H         1.17027473029423    7.78527782484114    7.68077773895121
H         1.74623492695743    6.40603744801431    6.72007311242565
C         1.85175481687974    8.23619150250587    5.66298712273470
H         2.82052313302220    8.19810561449641    5.15896029155668
H         1.59681298661531    9.28292880351548    5.82913682531814
C         0.78509525938202    7.60944071026494    4.75263884512863
H        -0.19932138012693    7.69513527123510    5.22306618865118
H         0.76732634475570    8.14436953527737    3.79308885962995
C         2.04282022110294    5.90584918180776    3.68623717269111
H         1.99000092249051    4.83030758959476    3.52957175367901
H         3.01155532059741    6.15783289727809    4.12736237275211
H         1.95031367236703    6.42182127495118    2.72529736345256

