67
CSD_code = OBARAK | q = 0 | S = 0 | Stoichiometry = C30H32N4Ti | MND = 6
Ti        4.25580333832211    3.05765476450040    0.91852558614127
N         2.35595889194921    2.35517225698610    1.14368676148383
N         4.44780789663689    1.49797687373470    2.28004615037179
N         5.92676994973363    4.18187409141764    0.74537307539365
N         4.25399427227392    4.15641235543701    2.68302599804213
C         2.28437995730063    1.08952423870906    1.54734748382031
C         1.21967654879013    0.24143711514777    1.18382440832768
C         0.88268531947740   -1.03330961889229    1.59915823646928
C         1.43693225021684   -1.80902774449146    2.60023272546146
C         2.55474906496209   -1.49970729240261    3.36639933762837
C         3.42739568030210   -0.44480700906756    3.24711913433141
C         3.43552358723086    0.66785587736132    2.36963120988882
C         1.16400067523728    2.95975850119732    0.58323404879678
C         5.67259685957541    1.26429449010989    3.00311883446139
C         6.26502768628738    4.91760684199178    1.79072834926259
C         7.25006956588331    5.92828072148725    1.73921192001037
C         7.89510613972783    6.61398143160710    2.74810967510160
C         7.81408259561254    6.44384686062819    4.12082386508674
C         6.91696342736076    5.63413960055379    4.80324145455366
C         5.84761467629383    4.91996836013850    4.31174608956578
C         5.42763959405675    4.67296941573571    2.98337919679409
C         6.63972959089342    4.37395396996842   -0.50239765151723
C         3.25275555033963    4.00699978886081    3.71264755349965
C         3.54330601971180    4.26716197779216   -0.59611621270973
C         3.19590381781735    5.56362231176283   -0.18629088000046
C         2.77151821119547    6.53712399575297   -1.07884203041480
C         2.67745862493093    6.24604379927298   -2.42934299104574
C         3.01727054237980    4.97979455882915   -2.87116672272193
C         3.44366598548202    4.01518409428852   -1.96827691337658
C         5.05592861902245    1.54194965629385   -0.25600549139015
C         4.19913349230042    0.74424804095027   -1.02676859783652
C         4.64285241586653   -0.38273653837830   -1.70372581157311
C         5.97227835812552   -0.76030135012811   -1.63323861931902
C         6.84805965200778    0.00109810071019   -0.87953382253382
C         6.39089979381436    1.12386696439227   -0.20533836944625
H         0.57727169122541    0.63424794776683    0.40603385685242
H         0.02884176272774   -1.46779417995905    1.09115048679143
H         0.95114746348089   -2.75214482847875    2.81224255876504
H         2.79910112262857   -2.21645910220518    4.14272022496186
H         4.25408780112131   -0.46672555160627    3.94569899910063
H         0.26909394473423    2.66260482981937    1.14742835595430
H         1.01710033743928    2.68999151670881   -0.47236344637967
H         1.26219104886805    4.04644415307809    0.63652577766504
H         5.51705919475996    1.29807147071550    4.09118847702029
H         6.38757859622185    2.04935249542679    2.73995458892267
H         6.11216647149680    0.29032056789552    2.74969232367658
H         7.54909461794987    6.21889457953077    0.74111892698413
H         8.61229511945885    7.35455005937190    2.41220111519500
H         8.50998891943316    7.01208340903544    4.72340531378803
H         7.03302009322762    5.61165956840173    5.88114882764496
H         5.23663496572801    4.44267478951129    5.06814210464833
H         6.42784408172439    5.36367851163954   -0.92908646951490
H         7.72449325854975    4.27871130431453   -0.36210042713728
H         6.30832736264165    3.61828796548165   -1.21645402651102
H         3.49701329761005    3.20253261497274    4.42096197334947
H         3.13194936577815    4.93845046685485    4.28251604558170
H         2.30152204112545    3.76084909598728    3.23621502922585
H         3.25865312583218    5.82974513492460    0.87150521854145
H         2.51384568137688    7.52681148656327   -0.72290129957850
H         2.34530638211162    7.00027831462923   -3.12921163455217
H         2.95178441461564    4.74354529469647   -3.92534426524529
H         3.71102871532272    3.03518832356066   -2.35611692654651
H         3.14507177863307    1.00375656335443   -1.11065731122799
H         3.94729779974537   -0.97130023636730   -2.28791847119953
H         6.32139625427114   -1.63875052650155   -2.15772354065015
H         7.89050151835919   -0.28367417332795   -0.81467480714566
H         7.11185312063100    1.69130663196669    0.38183544040194

