79
CSD_code = OBAVOE | q = 0 | S = 0 | Stoichiometry = C26H48Cl2NiP2 | MND = 4
Ni        2.05328901507025    3.02679762456662    5.06639806467573
Cl        3.14991061869758    1.58759626905916    6.14734229296190
Cl        3.46863594951793    3.48571923000307    3.57147826463949
P         0.79647405587970    4.40571772003287    4.04138411526315
P         0.63033496818415    2.78608973631840    6.63300669331002
C        -0.66378739096616    4.79887870238134    5.14589702876356
H        -1.54745520122842    5.01897607002019    4.54136317752185
H        -0.39274089163964    5.70809671210733    5.68916431613619
C        -0.94255097858329    3.67357768304805    6.13830767590615
H        -1.46665034995987    4.04361537854519    7.02226635215813
H        -1.58152554416149    2.91598634655602    5.67623971584215
C         1.34946475295415    6.05656216980379    3.41850156153900
H         2.03608806530917    5.81321386790213    2.59877043075044
C         0.21465342025012    6.93630404342454    2.89844818495961
H        -0.37624254584006    6.40583642831809    2.14905032561735
H        -0.45121348106710    7.21168420746392    3.71957074054365
C         0.80014736850668    8.20884610632859    2.28788610536596
H        -0.00666148861584    8.84503728805526    1.91709199815487
H         1.43505595946864    7.94370338617525    1.43975483077864
C         1.62840686952491    8.96683524485376    3.32145362793777
H         0.97947050692254    9.28617100950619    4.14106127571818
H         2.05614664999770    9.86280015842814    2.86787648886998
C         2.74202935979177    8.07996657121585    3.87171942038799
H         3.42870091658427    7.81387638955785    3.06605934994613
H         3.30970324494043    8.62230906834881    4.63029748591936
C         2.16005388256351    6.80511041368875    4.47480562364172
H         1.52440373188489    7.07115041386431    5.32367441457982
H         2.96660671872042    6.16071295949754    4.83285988029440
C         0.02611740401471    3.57572483043296    2.56230542307463
H        -0.97279423666399    4.00457640727658    2.40242445733912
C         0.86887839743793    3.73742104294034    1.29681954843314
H         1.89075629833322    3.41520552504594    1.50769170212942
H         0.89615950213721    4.78405450143278    0.98907619181035
C         0.29815126492891    2.90358496247810    0.15176173191604
H         0.92442500193802    3.03217187099407   -0.73279980422650
H        -0.70704665488074    3.25759273094208   -0.09556269379308
C         0.23508961741439    1.43069110668884    0.53735546926944
H        -0.16174495227989    0.84051751249653   -0.29100242533506
H         1.24187152861786    1.07176793061772    0.75818755975182
C        -0.64421123962783    1.26071127384427    1.76997362893987
H        -0.68417530716106    0.21007645644336    2.06479098740884
H        -1.66340895213317    1.58265427955394    1.53682942621122
C        -0.10250125917213    2.09375630495847    2.92500350296254
H        -0.76368986961656    1.98845910645303    3.78846659418995
H         0.89439761590484    1.71747060787228    3.21097616964213
C         1.32328870028943    3.70689674816336    8.08437921626016
H         2.02570582626493    2.99057995014803    8.52950226566194
C         2.14521664392935    4.90007071964441    7.59787339396982
H         2.85619799547196    4.56313723918526    6.82469477919203
H         1.48495981753014    5.64909354814808    7.15434581626171
C         2.90186937843702    5.52231349678639    8.76573256404236
H         3.47538308674726    6.38479923516544    8.42063061151205
H         3.60565887781943    4.79157933142600    9.16892378136984
C         1.92594660250241    5.94923334328896    9.86008233618734
H         2.47629443003422    6.36134426682875   10.70781386610240
H         1.27096414531497    6.73543803083693    9.47533514726036
C         1.07674162985309    4.76702075380634   10.32112574925233
H         0.36811617123292    5.09410020067894   11.08538527472879
H         1.72323512142086    4.00792168927869   10.76674520950861
C         0.31974635564159    4.15889872715031    9.14064805703439
H        -0.29340721425596    3.32128281619360    9.48096909129461
H        -0.34549868685048    4.91970193260149    8.72470061935993
C        -0.06323845158684    1.21409467412095    7.34686083083330
H        -1.04974931788544    1.46998928299450    7.76071280697598
C         0.80812182070664    0.60465089884800    8.44453444528224
H         1.80967878931408    0.43451724934987    8.04586583058116
H         0.88244039123693    1.28358013066999    9.29548549762783
C         0.21777619256035   -0.71830014288558    8.92844983676710
H        -0.76769230323200   -0.54111590379836    9.36926751972254
H         0.86067745838137   -1.13579201997392    9.70552657208891
C         0.08555237862943   -1.70409285577417    7.77442852383720
H        -0.33257931463196   -2.64759306203122    8.13100708003560
H         1.07383212528074   -1.90576075928091    7.35783863926761
C        -0.80707380795208   -1.11049781372326    6.69181558318432
H        -0.89400880347393   -1.80356453569428    5.85272160134399
H        -1.81012201575021   -0.94664363761642    7.09614281481660
C        -0.23284772359779    0.21381132681271    6.20073759299395
H        -0.89299156556060    0.62732068937879    5.43400432424564
H         0.74758292427963    0.04167679973045    5.74848580949116

