88
CSD_code = OBAVEV | q = 0 | S = 0 | Stoichiometry = C31H45F6N3Si2Zn | MND = 3
Zn        4.58837139499493    3.01808062092369    4.17254975117384
Si        7.67633048501936    3.57266220619134    4.29232685816945
Si        6.36565898394869    2.49768359195058    1.76057498152018
F         3.02040719579556   -0.45781311468463    6.86039409428813
F         1.02434338975223    0.12193964196815    6.30764780176852
F         1.96594502703499    0.97256620939410    8.03690700815862
F         0.49481276267834    5.54261733616285    5.16667496040729
F         0.84886852608419    5.05945093171111    7.22030678294298
F         2.08479333981367    6.49827972494248    6.24939194842146
N         3.56159737803420    1.49708938114716    4.93169600861874
N         3.24400699473859    4.41230176727925    4.63223550223079
N         6.28717918260009    3.05342539197484    3.39902630813543
C         2.74354051468089    1.74536107438392    5.92315218706683
C         2.24129217140471    2.99084653682392    6.29593686060565
C         2.41273470303020    4.19689532573842    5.61753026693860
C         2.19524509038089    0.59107284224392    6.76987001923610
C         1.47099500033463    5.32345235838019    6.06330210689684
C         3.70714703144092    0.18572920028714    4.40788219818658
C         4.90819276496070   -0.50777958657336    4.61890231239821
C         5.05478725838620   -1.76452727270324    4.05603597890754
C         4.03443982607622   -2.33242585000195    3.31290868699449
C         2.85978922527913   -1.63939540487821    3.11277391383505
C         2.67545945735836   -0.36684639219447    3.64190696471823
C         5.97251584472395    0.13545168590047    5.46335408462599
C         7.19851379965267   -0.72508745101799    5.73707744881270
C         1.38511132508754    0.35661820217925    3.35200378360828
C         1.14089490507385    0.53238580925019    1.85260368277828
C         3.21340173526694    5.61322504634874    3.87210734198046
C         2.36190474359054    5.68774024791426    2.76417811495653
C         2.36327317978191    6.85886348248072    2.01862794806586
C         3.19718666530906    7.90872644228854    2.34920277229431
C         4.06628582691367    7.80032802925896    3.41914917346672
C         4.09483281126074    6.65235003913561    4.19502461683628
C         1.48805377402845    4.51387055253913    2.40008629674563
C         1.08193497775781    4.45808227147716    0.93111846935831
C         5.04353505835900    6.46781687329836    5.34848145476040
C         5.93250003554718    7.66332868443361    5.66273509882060
C         9.16222829829017    2.39510415519802    4.08889518899270
C         7.16032590256006    3.56343635259259    6.13964812173845
C         8.23698278459987    5.32277864630003    3.75980807139631
C         6.90294543063994    0.66698339479518    1.64372890598395
C         4.56958652359777    2.63775306645217    1.13716014166836
C         7.50477063047818    3.57277944264054    0.67948950203918
H         1.58217330404417    3.00258135430677    7.14810039968714
H         5.96620724936586   -2.31884093313913    4.20546983350630
H         4.15753580634595   -3.32015117238721    2.89494631123639
H         2.06042885949945   -2.09042008085532    2.54489328734441
H         5.52691403417253    0.42377160769245    6.42022760116355
H         6.29084467366218    1.05416920706294    4.95859277486161
H         7.71468752720813   -0.97415632818546    4.81311329142636
H         6.92230681540675   -1.64439666196519    6.24858291782559
H         7.88959664496739   -0.17793827690229    6.37438556722216
H         0.55871831303481   -0.21738382222458    3.77945521909701
H         1.37803976848036    1.34035672448211    3.82475261756515
H         1.95212361333154    1.09165014751004    1.39299087321019
H         0.21104374780752    1.07417694590847    1.69399488103247
H         1.06466925491546   -0.42850010510119    1.35138387906764
H         1.70517205772786    6.95383405421085    1.17080010574258
H         3.17779409980846    8.81496894958233    1.76254348140746
H         4.72286163734150    8.62246789725573    3.64985551435733
H         0.58259190771779    4.53491469708124    3.01276397719844
H         2.02698206133873    3.59410042114706    2.65187898904119
H         1.95379582406712    4.54057246501794    0.28623720596197
H         0.38412169697863    5.25357254861739    0.68304417788291
H         0.59238112323520    3.50933319055023    0.72463574261791
H         5.67392810197934    5.60303716777457    5.11701977661403
H         4.47249499467193    6.21867950901317    6.24638704675917
H         6.57209860682062    7.91091101078005    4.81960952511765
H         6.57015380483378    7.42499035974891    6.51100546578639
H         5.33336604937368    8.53252930209493    5.92354678794291
H         9.48740556020529    2.36357756787223    3.05505795434247
H         8.92822584614402    1.38061130048206    4.39194875422284
H        10.00244257589875    2.73345080798821    4.68715253544794
H         6.07934241949746    3.44586301843002    6.25283226698852
H         7.44455755907636    4.48200402924214    6.64186346648062
H         7.63233277285723    2.74701501674978    6.67595416209559
H         8.99097602623288    5.25846595186797    2.98266713981025
H         8.66976768226575    5.87703826329094    4.58684388766346
H         7.41161378000302    5.90381991586885    3.36184284670738
H         6.94007644350942    0.33855238499980    0.60974470613537
H         6.21313652899840    0.01508534132641    2.17176735090026
H         7.88911683223459    0.51953715101578    2.06947872832259
H         4.43647551436673    2.20434638297051    0.15195373689935
H         4.25351334272037    3.67566657365313    1.08931879219038
H         3.90704041782074    2.10544096483031    1.82091601085531
H         7.44605378706933    3.27182380694007   -0.36109479987823
H         8.53772369166103    3.47564499422307    0.99225013380430
H         7.23954568498835    4.62242485526381    0.73867135576261

