39
CSD_code = OBAVIY | q = 0 | S = 0 | Stoichiometry = C10H24Cl2N2Ni | MND = 4
Ni       -0.15681482525171    5.87786398261200    5.57396943135919
Cl        1.25953386187214    4.54806071381630    4.92387470223953
Cl       -1.87041700918070    6.68559643408868    6.35523091432882
N        -0.03561609423138    7.46777421843762    4.01311022740033
H        -0.81293305815802    8.02867335784183    4.37119190587701
N         1.42240856733913    7.24210830672519    6.40918663806899
H         2.22062428382596    6.70499908511560    6.06071023962295
C         1.18874941107810    8.23912382098871    4.19547842478829
H         1.15460251064941    9.19956235019311    3.66372723045655
H         2.02968082736168    7.65335337990367    3.81979852569140
C         1.39480603794758    8.51124730177434    5.69166090192115
H         2.32501927946971    9.08092648750052    5.82185030493678
H         0.55851867860191    9.10530850389585    6.06491783188087
C        -0.40791793820281    7.04660330331825    2.64594604074527
C         0.76730261523755    6.36603193499322    1.94815527847668
H         1.53763247585913    7.08293842447995    1.67591450759356
H         0.42233924684859    5.88132156235728    1.03907339154187
H         1.19614297798147    5.60998643276069    2.60163935275429
C        -1.55476301745369    6.04764692652088    2.82591139690635
H        -1.80453090466654    5.55564895822544    1.89026052681549
H        -2.44352364509837    6.54443777253601    3.21074731999607
H        -1.24342292921128    5.27643522122427    3.55042286881870
C        -0.89127267472409    8.25037778835983    1.82831247994128
H        -0.08711407535046    8.96688327726825    1.67681583475500
H        -1.71667358787237    8.75149881768638    2.33065080497633
H        -1.23653401688370    7.91956703085209    0.85269701804847
C         1.53432773174014    7.26411114077536    7.88236757879190
C         0.48213707365460    8.18729775227033    8.49198187968564
H         0.72018749078782    9.23299412973893    8.31474271171773
H         0.43604828582908    8.03065150434342    9.56598804729645
H        -0.49389324181037    7.96447645587209    8.06753563668186
C         1.28070728649958    5.82114652039602    8.32869288228586
H         0.34452824301705    5.46644159898554    7.86592718588908
H         1.17670131753038    5.75022218616788    9.40751224896284
H         2.09153378355249    5.16901322355361    8.00936017244467
C         2.94063940389673    7.70144719135045    8.30942353973081
H         3.69731230028563    7.05981443146276    7.86147644716505
H         3.03496238068323    7.63698999649400    9.38993243568785
H         3.13498094654681    8.73001847511507    8.01440513372000

