63
CSD_code = OBAWOF | q = 0 | S = 0 | Stoichiometry = C18H40Cl2NiP2 | MND = 4
Ni        2.16535129896328    4.34651662133922    6.62172224431479
Cl        3.33178995942028    4.54016664588400    4.86987852020652
Cl        0.94867450901716    2.82042482317758    5.81032358501760
P         0.63594395211184    4.80892234223063    8.11636269153468
P         3.74693468376393    5.27901402056325    7.81226911170769
C         1.51891210237375    5.54287986644171    9.59191337602455
H         0.90133241477858    6.32562879306299   10.03942361887789
H         1.59000521179985    4.72974472154638   10.31562643377370
C         2.92112641198622    6.07734801170595    9.28742799606295
H         3.56422300115025    5.98278221400768   10.16601809881012
H         2.85939273017336    7.13827417071216    9.04109603938350
C        -0.58744695817451    3.61730260989509    8.94699240209995
C        -1.70611666472980    3.25560750963876    7.96956216293287
H        -2.28078441678604    2.42185291523524    8.37125834723815
H        -1.28132799902562    2.94535998652796    7.01698538096524
H        -2.39351446408038    4.08210650734690    7.81321776710691
C         0.18527635042305    2.33113755793946    9.25426985329026
H         0.64566906394579    1.94641656462459    8.34552397529986
H        -0.50136734968399    1.57286265842604    9.62721321819343
H         0.94741285379331    2.48728804346982   10.01481089822781
C        -1.18624955277419    4.15243759364837   10.24966757572195
H        -0.43141455081546    4.29369725480765   11.01933375046745
H        -1.90009763176543    3.41961590849239   10.62430410544693
H        -1.71646382062023    5.08783641526025   10.10909685666469
C        -0.31247673398459    6.26746656413133    7.34826865915448
C         0.72531393030875    7.36961193435877    7.13191138208611
H         1.02107334468537    7.83647187736829    8.06876743470853
H         0.31556303109456    8.14609628007236    6.48700710167981
H         1.60116186108703    6.94884560756404    6.63354320346345
C        -0.79698077842104    5.83143031541829    5.96349682999104
H        -1.55037402239085    5.05276636385835    6.01242991899209
H         0.04553296041049    5.45104996092766    5.37864150865009
H        -1.21872004222047    6.68417905020973    5.43249006706167
C        -1.46403216197528    6.83340738049591    8.17339601418551
H        -1.14194180109895    7.10616236395063    9.17716058207819
H        -2.29806973707540    6.14151645131993    8.24164457703179
H        -1.82880888791892    7.73840293722392    7.68722317311047
C         4.97612846258139    6.62437944020130    7.27790556462872
C         4.19223660569257    7.62835905840017    6.42734967674020
H         3.45775340524998    8.17333775565491    7.01656623797804
H         3.69668998430342    7.11395056860606    5.60538079985147
H         4.87774725131786    8.35809830358222    5.99925874438696
C         6.05742852732605    6.01515124018907    6.38505550740660
H         6.75524435757363    5.40372104425228    6.95019457084274
H         6.62827748170330    6.81365841321211    5.91265181172612
H         5.59808779526298    5.41819192847505    5.59965818955394
C         5.62420961012968    7.37216338814369    8.44527709758369
H         6.16467956909450    6.71065936722907    9.11313528535467
H         4.89624954402756    7.93288382610956    9.02651561658535
H         6.33768972737272    8.08824556374840    8.03880348966374
C         4.69466167189417    3.79718616185994    8.53506894624642
C         5.87868747775185    4.12886616778573    9.43783114512982
H         6.70340560270267    4.56997243014360    8.88622563568847
H         6.24317790590690    3.20533248112426    9.88805014243322
H         5.59068997156724    4.79799672632662   10.24720237888263
C         3.66830676534362    3.00148863829745    9.34258536851693
H         2.77238463438296    2.84788831416793    8.73742204581900
H         3.40639020576041    3.50393235745470   10.27105055127609
H         4.07183283524291    2.02180504820107    9.59581345094796
C         5.13120929141984    2.90839112901211    7.36817219926891
H         5.87324855109098    3.38519728875091    6.73700368266412
H         4.26600366531420    2.66166807119595    6.74602798140141
H         5.55077700224973    1.97734444499802    7.74761541787164

