81
CSD_code = OBEFUY | q = 1 | S = 0 | Stoichiometry = C21H48ClN10Zn(1+) | MND = 5
Zn        5.58444445259321    4.80834634690840   11.24459332055624
Cl        3.33872535505755    5.09276539977106   11.21913978257049
N         5.98927534142536    5.17869744790243    9.22060997716993
N         4.10368829413655    4.52261100825209    8.05467546738869
N         5.36479703746424    6.26166131314303    7.22036176034652
N         6.09812040254579    6.29882033589748   12.62832693615078
N         5.46654358052258    7.61365837201761   14.48285731944824
N         4.48890883790764    7.94584684787815   12.42302348218583
N         5.66306601375376    2.81771818146661   11.89819646054307
N         4.61217217777259    0.70957126681950   12.02839196735961
N         3.79160699896887    2.50372477437760   13.21888013052821
N         7.79219822769034    4.52824906161747   11.26593218847526
C         5.16513194762251    5.34951183309452    8.21838295177022
C         4.10097144237317    3.18943193260366    8.60383645522605
H         5.13060050138200    2.86552450077932    8.73531122194907
H         3.60048675173848    2.52781534222385    7.89262349970535
H         3.57346654739115    3.14060053266035    9.55876468436049
C         2.78625498570605    5.03596424272960    7.74373345753105
H         2.14708668789083    4.92981474300620    8.62476841343719
H         2.34557486621581    4.48116962036451    6.91316745822381
H         2.83802361808061    6.08959535643240    7.48883406376543
C         4.95005902784983    6.00812554051106    5.85878958557144
H         4.71646242723905    4.95518119513922    5.73088967323282
H         5.77511436293923    6.26868236987588    5.19110458530221
H         4.08097693017065    6.60676052836858    5.57174546746741
C         5.83345993557658    7.60779254585893    7.45187406773481
H         5.90603593337647    7.80305019851850    8.51597543567992
H         5.11649454570405    8.31490268465364    7.02480399464182
H         6.80430716649759    7.78141737066676    6.97918703326130
C         7.36231298487170    5.62199946291380    9.11587299471027
H         7.49838565491975    6.61923256010273    9.54875963044574
H         7.68515337033195    5.65258177762534    8.06995704212079
C         8.23454624093720    4.62592210315762    9.88117520089994
H         8.12248010090166    3.64857386328408    9.41064381695441
H         9.29033270341769    4.92046869502216    9.81690872253176
C         5.35340818728785    7.22426788952832   13.17768313213482
C         5.23314706174210    8.97957845909325   14.89534809476794
H         5.21824855976279    9.63300883220897   14.02794506915784
H         6.04998328306004    9.28710141202779   15.55305901287840
H         4.29508902992309    9.09179139873563   15.44626720082414
C         5.64929855297376    6.69205248367185   15.57946120595249
H         5.58935884162609    5.66892126303711   15.22567523160831
H         4.85208420670841    6.84518788920687   16.31262000897949
H         6.60764079027737    6.85181105639825   16.08166252909277
C         3.13155669114844    8.19623174945320   12.85953340396547
H         2.44690449405603    7.60079773023175   12.24900138788191
H         2.88244331586572    9.25329889502472   12.74831556157980
H         3.00388040127282    7.90095879533339   13.89608589912287
C         4.69183759457400    8.11451349749384   11.00549878883742
H         5.74793695547807    7.97633303184538   10.78650647631623
H         4.39570287288868    9.13140014800478   10.73654525332778
H         4.09756987833296    7.41011633354966   10.41968172996100
C         7.36368608579550    5.93409487195741   13.22665543638127
H         7.26349629227737    5.06182563133516   13.88196413143319
H         7.77187858182484    6.76271090693547   13.81476215464008
C         8.33593050939852    5.59500040888815   12.09603124214283
H         8.46056674883655    6.48587599175667   11.47963462820189
H         9.31581744159459    5.32197873656879   12.50945284312301
C         4.70306477765447    2.03965447686044   12.32906052162977
C         4.86176498106367    0.16888263622161   10.71280760967274
H         5.03709857259452    0.96991690121864   10.00343014344944
H         3.98174327206340   -0.39072408167800   10.38264051967965
H         5.71656211350281   -0.51330795750830   10.71564749699013
C         4.07643677624042   -0.25069567591423   12.96712426021167
H         4.01757611134013    0.19034131542071   13.95787882042336
H         4.74955962530681   -1.11086641799658   13.00468720358766
H         3.08581146044571   -0.60923969881504   12.67365260909197
C         2.37559817183871    2.25488202245895   13.04889025382810
H         2.20854615516051    1.52365571361181   12.26450098095375
H         1.88421695138083    3.18688391192397   12.75572002009391
H         1.93531910416707    1.89635462546177   13.98135731029267
C         4.09388058921905    3.61024121782719   14.09247544755277
H         5.17271644272104    3.67353310080946   14.21240199207040
H         3.63173654351814    3.41523636369863   15.06328964327053
H         3.70899007451761    4.55586433451872   13.70488545410765
C         6.91166884557130    2.24800333985434   11.44093644923671
H         6.92038939305750    2.11636515789389   10.35328989465182
H         7.09201542084350    1.27421425266084   11.90814896961902
C         8.03571174929699    3.20821086908023   11.83253027779274
H         8.04387804686851    3.29263414143070   12.91969601851932
H         9.00538299195322    2.80601268302978   11.51075943171824

