75
CSD_code = OBEGIN | q = 1 | S = 0 | Stoichiometry = C21H42ClN10Zn(1+) | MND = 5
Zn        3.31759520924136    5.55540646113408    6.33718003230834
Cl        3.12974704664003    3.65753215802176    5.14479126927049
N         1.32027605780427    6.13336842122608    6.38404696012871
N        -0.76034517125577    5.92646936660421    5.18832024871477
N         0.06278591596375    4.18651609924129    6.28681417330158
N         4.59085002818839    6.62600194500543    5.08821538979877
N         4.17447978539550    5.87619577504304    2.93386737124467
N         6.28958060021985    6.34409182113309    3.40242026242299
N         4.13136365651112    4.78475169297896    8.08933901427553
N         5.34741488849726    2.90834942740565    7.47547937187735
N         4.26284547183561    2.76886112228819    9.40324016510149
N         3.50391613382865    7.44778584006076    7.52701123914188
C         0.28684382573116    5.46762269417404    5.94595222196802
C        -0.68759713405270    6.91759995547133    4.14158609693660
H        -1.67338445292807    7.37120490499062    4.02874068110509
H        -0.40073805851179    6.46010883551592    3.18752472916914
H         0.02636822784458    7.69608591487209    4.37953875840187
C        -1.71564326362059    4.85123249447203    4.94380908207075
H        -1.83867532507029    4.69153039536659    3.86925391866688
H        -2.68822716055424    5.12385665930463    5.36534024769555
C        -1.10131565813530    3.63242799002062    5.63577697883318
H        -1.77440673034144    3.19306730507465    6.37799328590624
H        -0.80640441646649    2.84787213140230    4.92962989373118
C         0.75700312055858    3.41293613179777    7.27225193068464
H         1.28661759088685    2.58349924785230    6.79934632423194
H         0.03943075872083    3.02171161787026    7.99987817102642
H         1.47913060492254    4.04907340275211    7.77543982690311
C         1.29314313122846    7.57624895676485    6.48636371349810
H         0.27349974411146    7.94376501123479    6.64273310737311
H         1.71732911573927    8.05805924009459    5.59565523973343
C         2.14907540390050    7.95473337456313    7.69721045391633
H         2.14107240178090    9.04250477791546    7.84288316158410
H         1.70834157096711    7.48573105876845    8.57743636196590
C         5.01432474137162    6.28051936193717    3.90304158235595
C         2.74335898903415    5.93691003406844    2.94128047808522
H         2.41447438683781    6.40857441366968    3.86240200996914
H         2.32234906352011    4.93091883230122    2.89034760969956
H         2.39796937357504    6.52188423806573    2.08322355185429
C         4.86198346698917    5.49796639697571    1.72139768922901
H         4.46225305759502    6.06028638429871    0.87169872243144
H         4.72541769275396    4.42915817595229    1.52275458744958
C         6.31643125603882    5.86273793257431    2.02561766461859
H         6.97911750352671    4.99659628049233    1.94195018886810
H         6.69621734732875    6.65158688211184    1.36918001816251
C         7.51078254900788    6.11923796236499    4.13828360689739
H         7.44859407969815    6.51330170636369    5.14479532414366
H         8.32344156807897    6.62578362376784    3.61571582761447
H         7.74362453854124    5.04951383652728    4.19488399335866
C         5.34984637553419    7.53206667544572    5.92230287701817
H         5.94986212131826    8.21980300874954    5.31710374488792
H         6.00831117015593    6.99470531709123    6.61744215048586
C         4.33984816068759    8.34233469440546    6.73806756820536
H         4.86132334503025    9.07061401943922    7.37226053782870
H         3.70553214225510    8.88691233455261    6.03802656352222
C         4.51815504116827    3.55814432846922    8.31088457540698
C         6.07407091055196    3.45649056136019    6.36951376009500
H         5.73857946489307    3.00355558544240    5.43448804241767
H         7.14315814551931    3.26618271368876    6.50531658069408
H         5.89523870123204    4.52664607419777    6.32527000320073
C         5.59782683961822    1.54633831657286    7.88516106233297
H         6.67494803214315    1.36937033866739    7.96392257798595
H         5.18554985884787    0.84507909569272    7.15105082250544
C         4.89545605819189    1.46409746324861    9.24202095305350
H         4.14004282134897    0.67352062926485    9.26192519363920
H         5.59543032408641    1.29270721870690   10.06552898737088
C         3.04667045395402    2.75190784336510   10.18054686955988
H         2.63543762979591    3.74647676937722   10.29983793957545
H         3.27812557683648    2.35061609341914   11.16818737900366
H         2.28914027641065    2.11334620384608    9.71128115110976
C         3.71620042737458    5.64861280674909    9.17282985140421
H         4.21393717796534    5.37679021715659   10.10966324910436
H         2.62864131679653    5.62496526536301    9.32201766598278
C         4.12364698232795    7.07354277192565    8.79085532491819
H         3.85609784096097    7.77262582882255    9.59348366109199
H         5.20691027151499    7.08916953308261    8.66716836987547

