65
CSD_code = OBEGEJ | q = 0 | S = 0 | Stoichiometry = C22H32Cl2N8Zn | MND = 4
Zn        7.01432305398623    2.74803783172236   10.00042788063052
Cl        5.38098098584221    4.22720319859536   10.47534884724796
Cl        6.29875483874269    0.96947432281961    8.86595367821046
N         9.05466844787282    1.22659355031852   10.58287839234826
N        10.43771010703578    0.71124147085542    8.82252519494791
N        11.39201234841721    1.75385013514836   10.54409663198142
N         7.57012244841113    2.24055414749350   11.93471576618495
N         9.10548105608612    5.01320462797163   10.38838525817178
N         7.96062732580226    5.92581661079443   12.17152961648971
N         7.42710367949184    6.69475741829443   10.16834300732953
N         8.44064696379276    3.58255186685782    8.69510650327821
C        10.22061960419417    1.21898693173964   10.05173196827116
C         9.54414389518155   -0.18738240516692    8.14658626468772
H         9.81079707028265   -1.23110275308377    8.34243433352626
H         9.59616758744966   -0.00472748593982    7.07384622133446
H         8.52668084353219   -0.00070333606208    8.49236309085475
C        11.82372524625833    0.83547288780245    8.43909429295796
H        11.90732750634476    1.19659588450031    7.41051154651861
H        12.33645338674944   -0.13387810819852    8.51237415735323
C        12.35942278163555    1.83958482362109    9.46235877879498
H        13.35711635212654    1.58345089886896    9.82757251219889
H        12.38306732347833    2.85575265313761    9.04643281663627
C        11.40091526916627    2.80452689699091   11.53455280078857
H        10.92766599916546    3.72009455671451   11.16426531466406
H        12.43645039712832    3.01095966068255   11.80300433806944
H        10.86912426196906    2.47586690873337   12.42582444524257
C         8.60905799706675    1.40197220876230   11.83317174219007
C         9.05572426026112    0.64778212468661   12.94893691900687
C         8.42073067281790    0.85939725857282   14.15220123375743
H         8.73115305545867    0.30181597641264   15.02517575360129
C         7.37184199969131    1.77379545954005   14.24805393103153
H         6.86794652177649    1.94185892092764   15.18580731112673
C         6.96771101865690    2.42379089057841   13.10418366366181
H         6.13610677526610    3.11436430319397   13.09474322916556
C        10.13252349523604   -0.37945051633781   12.78253295820503
H        11.09333507891957    0.08022209361607   12.55160896379280
H         9.87895732714210   -1.04323709838128   11.95637457570854
H        10.23667315246790   -0.96828054556609   13.69066150939421
C         8.17187538320373    5.77940434854929   10.84589528848682
C         8.75136177778883    5.33785187751168   13.20703282928227
H         9.29510388738481    4.49617553939274   12.78719771114915
H         8.10325380173734    4.98164241814531   14.00986973749792
H         9.46632115216677    6.05856949141576   13.62284121159467
C         7.01511887727469    6.98102574341895   12.44791472437412
H         7.52710272276166    7.85609605812635   12.87498057910287
H         6.25469661227884    6.63892921719713   13.15387643439182
C         6.43404136783208    7.26802235069089   11.06238616554493
H         5.47760710728279    6.75164511549638   10.92260772878030
H         6.31880137515255    8.33512680684795   10.85813446656411
C         7.09448928171978    6.61893901100108    8.77060506426226
H         7.96950986722300    6.32002516042252    8.19667393404259
H         6.77911549764648    7.60963276700216    8.44135584317822
H         6.28358336075538    5.90576406873632    8.59370452716974
C         9.28995244257158    4.51722773086410    9.15173459231372
C        10.45946474317227    4.86171733454430    8.42433033176257
C        10.68272717219079    4.23717913763231    7.21993908954552
H        11.55778308971537    4.49012122100614    6.63558553669973
C         9.77274137250160    3.29099993395857    6.74893754191410
H         9.92211628955368    2.80107930266169    5.80042328350803
C         8.67469840562822    2.99641344042738    7.52284241032538
H         7.94217743290769    2.26326830663399    7.21866731142757
C        11.37209458254045    5.91651199548719    8.96855910416594
H        12.25689179518770    6.02201295641496    8.34484781249447
H        11.67412913566179    5.67439539004710    9.98656520204452
H        10.85267133124622    6.87400900515268    9.00767608902494

