77
CSD_code = OBELAL | q = 0 | S = 0 | Stoichiometry = C25H45NO3P2Ru | MND = 6
Ru        3.61186780160997    7.33670243913984    5.61292683337181
H         4.94664473756608    7.35270856529114    6.33990976994537
P         3.28490774224939    9.43880788582263    6.56615138146964
P         3.82288745370861    5.05751042025202    5.29609749960931
O         5.19239073041388    8.14981369878721    3.19543636088358
O         1.61549573084330    7.21990520567435    4.67592480627394
O         2.48529228506563    8.42022074445049    3.02558895125674
N         2.63204597371887    6.71737213193588    7.28751573844987
C         2.50541842804348    7.52143271169839    8.35775210603650
C         1.75867133580600    7.15815889630185    9.46894413817909
H         1.68325998944331    7.83495330093963   10.30646820317618
C         1.11783225446447    5.93083610996057    9.49191412287336
H         0.52301416012205    5.63010598653072   10.34000168183771
C         1.27435364557919    5.09606432781597    8.39856629415108
H         0.80625243242534    4.12351647022882    8.37691445246204
C         2.04079398656285    5.51111932436445    7.31856451111699
C         3.23874510179496    8.82307079290677    8.32102149877742
H         4.28807087773033    8.63001000440019    8.57355923376837
H         2.82752112144842    9.53691825030091    9.03701063216374
C         1.62936268964809   10.38320854263394    6.45147918880826
C         0.55026486281772    9.34310211071965    6.77808335489651
H         0.55865986273762    9.07448202844926    7.83385186846434
H         0.68428402502895    8.44073386562376    6.18261577949790
H        -0.43534567540030    9.74821293078560    6.54775522301124
C         1.44597211860967   11.56379057381167    7.40513564889337
H         0.41503694538067   11.91060636752289    7.32863205227658
H         2.08934896270844   12.39935201114628    7.14413396426108
H         1.62223127722311   11.28601407572182    8.44263845369464
C         1.43641875830122   10.86507171530198    5.00882192957755
H         0.37459515757260   10.92990350093237    4.77370352237719
H         1.89755027355167   10.18159321906429    4.29921923207235
H         1.86698899402352   11.84998719691803    4.85325196625691
C         4.70202736636111   10.70159791376424    6.64197049159383
C         4.78198072052303   11.49512170784721    7.94801798684354
H         5.57007827498077   12.24173043147744    7.85286732986900
H         5.03907553708705   10.85070369021318    8.78541341731469
H         3.86081181034342   12.01558461396836    8.18198577866221
C         4.57035157628680   11.64143533837239    5.44305399333048
H         3.79939746908623   12.39014449090011    5.60180870061179
H         4.33584472527359   11.06924656039514    4.54556435077459
H         5.51159269743619   12.16385154662935    5.27597540431461
C         6.01567865499045    9.93354292174175    6.48273038885231
H         6.03884818196549    9.40910141455757    5.52974988786817
H         6.15313521042997    9.20270800188249    7.27717161739073
H         6.85139444182133   10.63163503519210    6.51722106426007
C         2.23933731515870    4.60367128858056    6.14511989131771
H         1.45895860549046    4.82016379192886    5.40593839288842
H         2.17041916275648    3.55260108216159    6.43829480093274
C         3.64263014819318    4.16112976646194    3.63038426258979
C         2.98602033667805    2.78135205586560    3.69819223984182
H         2.95250647338649    2.36531511833476    2.69133542359284
H         1.96237407355008    2.84936408714290    4.05890619142934
H         3.53038988529483    2.08455893117468    4.32478838251164
C         2.76408112577389    5.05656503521938    2.75552374892645
H         2.65396064376379    4.61427854440918    1.76549461227230
H         3.21553203497256    6.04057281395049    2.63651194933268
H         1.76789571842110    5.17887041466682    3.17685312552237
C         5.01700314312685    4.08246019740046    2.96503623349889
H         5.63718180808358    3.30425989116352    3.40188650472761
H         5.52625897822818    5.04254804670686    3.05400075693720
H         4.90104979537691    3.85753374109570    1.90527319711017
C         5.14954118671674    4.16445269266340    6.33390019232605
C         5.12005284418907    2.63843728158645    6.28032794198490
H         5.83418276844434    2.24835688288035    7.00582814099328
H         5.40980923236788    2.26000327293515    5.30470946377200
H         4.13878403478415    2.24684005260225    6.54187402473556
C         4.94212499604843    4.58588204387444    7.79194059911086
H         4.01884503008094    4.18203922374781    8.20358256231044
H         4.92736423323682    5.67175745116894    7.87354071808482
H         5.76760184660587    4.21458351333138    8.39876293794065
C         6.51872337267225    4.68246535659866    5.88638458088441
H         6.48081082348418    5.76566409848480    5.76663469263328
H         6.83366242577797    4.24165439621460    4.94645532960235
H         7.27081919989101    4.44303678391360    6.63694004982137
C         4.46184326791337    7.89105299798687    4.04535940046891
C         1.56859794178590    7.83018044822442    3.58919977201847
H         0.56108684042648    7.82445962516973    3.09669906830812

