33
CSD_code = OBEROC | q = 0 | S = 0 | Stoichiometry = C14H14Cl2N2Pt | MND = 4
Pt        4.11091800115241    6.41447596550900   -0.00032789173623
Cl        2.93526321141192    7.11053986493769    1.86115191874139
N         5.38737735608855    7.86230949437166    0.26129835250274
C         5.00659210789879    9.13836304644638    0.16505655828456
C         5.88460703333916   10.18692039065623    0.33467381762669
C         7.23123478570047    9.93708469688305    0.61885461594400
C         7.60659923767922    8.59401671534618    0.72335105398483
C         6.66813526950609    7.60250713627785    0.53831151335838
C         8.15148120970517   11.05045955037792    0.78964143831910
C         9.46860034570277   10.96100610959897    0.93950773152049
H         3.95794779365505    9.31518102667659   -0.04577129558933
H         5.52714698862894   11.20132041666156    0.24516225454089
H         8.62334983477608    8.31933698659359    0.95073794327944
H         6.94342026651121    6.55582208189562    0.60333052424334
H         7.68409754242446   12.02691100418754    0.77671534250009
H         9.99244304860493   10.02072604313428    0.94641330545072
H        10.07750323572133   11.84072501244851    1.05503821611087
Cl        5.28741599107943    5.71841423300163   -1.86249602542167
N         2.83627526684508    4.96517509139335   -0.26257863765595
C         3.21868263549736    3.68963826332036   -0.16562029095398
C         2.34194287201629    2.63989112337623   -0.33439716010953
C         0.99493651169625    2.88790426198420   -0.61842983295665
C         0.61783768173947    4.23043791719382   -0.72338993107856
C         1.55511057427220    5.22322459646954   -0.53917439870207
H         1.27855520465499    6.26954617816598   -0.60447455428891
H        -0.39934150745647    4.50376813455259   -0.95048641386356
C         0.07606033401712    1.77332065513043   -0.78864865841227
C        -1.24113404984823    1.86112154619977   -0.93881722608805
H        -1.76610099117147    2.80076097232723   -0.94638257680235
H        -1.84896465470976    0.98061041981587   -1.05393278891644
H         0.54458240725012    0.79743110766502   -0.77508014909948
H         2.70064531378081    1.62597816481464   -0.24436624226646
H         4.26757914183101    3.51417179258661    0.04512948753390

