47
CSD_code = OBERIW | q = 0 | S = 0 | Stoichiometry = C16H28Cl2Pt | MND = 6
Pt        0.00000000001846   -0.00000000000170    0.00000000000881
Cl        1.72219460531227   -0.77241816741218    1.36422108814714
C         0.98353219181960   -1.12746840350013   -1.62206283036489
C         0.05736145490331   -1.94796863946778   -1.00280927487771
C        -1.19625646911808   -2.42767378125544   -1.66957310574633
C        -0.91110203665073   -3.77214915914600   -2.35852422592630
C         0.33754421750156   -3.77367638891183   -3.24354026073923
C         0.35346100625549   -2.69855765607938   -4.34061058629264
C         1.30552154555029   -1.52874774664405   -4.07839369642140
C         0.82992444065960   -0.54397196776532   -2.99776018182238
H         2.01755365692707   -1.16863392156314   -1.27253859694019
H         0.40627211232105   -2.59703430997863   -0.19534223572845
H        -1.54974797955068   -1.70713948944894   -2.40371616022412
H        -1.98858559321986   -2.57420159000374   -0.93134258034302
H        -0.78846508465483   -4.54661066141764   -1.59767016109456
H        -1.78264266794003   -4.03449835284755   -2.96129867757039
H         0.39618131094123   -4.75994421744657   -3.70943274582604
H         1.22552233835887   -3.66501087917777   -2.61940614697946
H         0.66887751403512   -3.16190641837007   -5.27820777167344
H        -0.65520839428123   -2.31522938999802   -4.50037477732203
H         1.41331114185121   -0.96559020913298   -5.00806133003437
H         2.29168144641111   -1.91611764411194   -3.81210121153528
H         1.44045323365564    0.36069190564320   -3.06490553127791
H        -0.20317886227728   -0.26732715211379   -3.20387186120543
Cl       -1.72219460529002    0.77241816736097   -1.36422108813224
C        -0.98353219182281    1.12746840350145    1.62206283035848
C        -0.05736145490720    1.94796863947129    1.00280927487350
C         1.19625646911259    2.42767378126189    1.66957310574199
C         0.91110203664654    3.77214915915079    2.35852422592612
C        -0.33754421749878    3.77367638891449    3.24354026074761
C        -0.35346100624981    2.69855765607534    4.34061058629399
C        -1.30552154555213    1.52874774664703    4.07839369642016
C        -0.82992444066765    0.54397196776896    2.99776018181755
H        -2.01755365692836    1.16863392156312    1.27253859693095
H        -1.44045323366704   -0.36069190563737    3.06490553127263
H         0.20317886226814    0.26732715211345    3.20387186120046
H        -1.41331114185398    0.96559020913387    5.00806133003173
H        -2.29168144641133    1.91611764412085    3.81210121153757
H        -0.66887751402234    3.16190641836150    5.27820777167873
H         0.65520839428554    2.31522938998904    4.50037477731558
H        -0.39618131093235    4.75994421744644    3.70943274583984
H        -1.22552233836009    3.66501087918625    2.61940614699354
H         0.78846508464636    4.54661066142463    1.59767016109743
H         1.78264266793872    4.03449835285110    2.96129867756609
H         1.54974797954749    1.70713948945449    2.40371616021779
H         1.98858559321275    2.57420159001245    0.93134258033735
H        -0.40627211232348    2.59703430997927    0.19534223572277

