37
CSD_code = OBEXIF | q = 0 | S = 0 | Stoichiometry = C17H13ClN2O2PdS | MND = 4
Pd       11.97043319631412    2.23453433846996   -2.06207010573774
Cl       12.14592406082382    2.60998681918246   -4.26326922207103
S        13.57100648041570    0.78422407198328   -2.30792640836157
N        11.66719832638806    1.79637411999118   -0.05785765754172
N        10.46429638005149    3.49197544413660   -1.77348692411458
O        11.21731571013818    0.03262138144743    1.32815246358498
O        14.72672494894130    0.97825887654813   -3.15385221435545
C        13.36517220252189    0.07899194655631    0.38376176568431
C        14.16298238968619    0.11456601817713   -0.75356890481273
C        15.44955052790112   -0.39628173929760   -0.74993068209849
H        16.02600782739763   -0.32361893277516   -1.65995226242700
C        15.96634119753423   -0.97342571737123    0.39515191370011
H        16.96978915324236   -1.37054852669098    0.39625720985601
C        15.17843377408174   -1.04431842785705    1.53356039048714
H        15.56472754482931   -1.50108241863581    2.43211894821839
C        13.89663998277829   -0.52840117509213    1.52365288833411
H        13.27316615139395   -0.58543351917349    2.40313948258583
C        10.63121163761033    2.57785391603001    0.42573103465960
C        10.19639122898563    2.59657645623946    1.74376665278284
H        10.63921674851258    1.92661261500066    2.46138246313845
C         9.18727125864398    3.46669865322887    2.15476101779559
H         8.88070546129354    3.44765019966435    3.18987515687181
C         8.58306027020344    4.33523547256180    1.28148410679777
H         7.79873905296702    5.00055212596321    1.60734119764067
C         8.99254646736763    4.36786979232168   -0.06265356458512
C         8.43798734547207    5.23504453303216   -1.02608953757924
H         7.65234400484590    5.91491393949994   -0.73068608614064
C         8.90149598430028    5.20263044998112   -2.31400196038118
H         8.49606221538393    5.85137904818671   -3.07362442722547
C         9.92649727206052    4.31017973533809   -2.65518705900615
H        10.31198697830679    4.26234024079514   -3.66768389193549
C        10.02616664379693    3.48934588124144   -0.48871664147010
C        11.96965754312844    0.62483910854752    0.56557057112614
C        12.66469607897348   -0.69011736114076   -2.89003004403509
H        13.31962091964505   -1.55458222961684   -2.88320395924947
H        12.32410426690200   -0.47962639417174   -3.90172166193856
H        11.81772876716250   -0.83011874229948   -2.21729404819542

