49
CSD_code = OBEYIE | q = 0 | S = 0 | Stoichiometry = C24H18N2O4Ru | MND = 6
Ru        2.72458143410661    2.26618706558404   14.89557082077317
N         3.04384226805193    2.00156543921879   16.79376088896109
N         2.30400806455962    0.37201437707829   15.00673760285683
C         2.41173752674879   -0.19102280789354   16.23493534804567
C         2.85130966011424    0.74395911211845   17.26104465686736
O         0.74851025863767    2.70934566947021   15.17947252050032
O         2.33612793827252    2.54094968323449   12.88033976533371
O         3.21907946758411    4.27380823726831   14.78877145473758
O         4.70496264531839    1.91749287241944   14.52542189645000
C         0.94658301882613    5.04386243304700   14.57208110108426
C         2.81120485836963    3.29080939606541   10.74149902775297
H         1.74618958862577    3.39268622520481   10.59131483219433
C         3.23127182572918    2.82998246917094   12.02639258831613
C         2.10988109611124   -1.53550381846564   16.44148309373417
H         2.20034449078790   -1.96497762310557   17.42620893260468
C         0.28927751959723    3.83659433131425   14.91343203111371
H        -0.81109756479855    3.91471378798811   14.96556958030628
C         2.38023895830224    5.19000291588612   14.52226160391177
C         1.57460970125695   -1.71605994844039   14.12462294501708
H         1.24410983331356   -2.28338275868061   13.26942554269545
C         2.88235164422790    6.48209744305693   14.17842986229327
H         3.95700179337211    6.58604811050706   14.13978690112643
C         5.23170295875551    2.24033834810720   13.44343780696445
H         6.33116264980216    2.14076622318436   13.41346712470106
C         1.88879128448131   -0.37884073897113   13.98882676242016
H         1.80726530408070    0.12943191961599   13.03601736314319
C         3.50528780438105    1.41475538144652   19.46866884664256
H         3.68251859322231    1.19085768680804   20.50894017420887
C         0.66348402043137    7.37886116546362   13.94537759777936
H         0.02292095891673    8.21802965498310   13.72136690231683
C         2.05914626998595    7.52987422273770   13.89509413848191
H         2.47995934234130    8.48903680424734   13.62772283613886
C         0.13540327959325    6.16605283952977   14.27810776922743
H        -0.93779911815529    6.03636445029393   14.32087447598815
C         3.07607928800973    0.42923657395855   18.59964881698375
H         2.91865446909202   -0.57729778223617   18.95237457632717
C         3.70913703498932    2.69820266010692   18.97139248799191
H         4.05038829906501    3.49416853046849   19.61359172561574
C         3.46847228573949    2.94254217448395   17.63440130128863
H         3.61964398237249    3.92313167069208   17.20033425282952
C         1.69060421855611   -2.31120407695597   15.37696464398938
H         1.45435225298939   -3.35444098838328   15.51683406059170
C         5.08055795233499    3.47106918154664    9.96701098144244
H         5.77202926144073    3.71956595740066    9.17652228001094
C         3.69814183622355    3.60446515979002    9.75624905450501
H         3.33891243400295    3.96077779258799    8.80098326063055
C         5.53111866640496    3.02759215952172   11.17556457498104
H         6.59325397805028    2.92067852809126   11.35119807072142
C         4.65198466577853    2.69751188944247   12.23476511739917

