50
CSD_code = OBEZIG | q = 0 | S = 0 | Stoichiometry = C23H20N4NiOS | MND = 4
Ni        3.06056275668080   11.66682392140246    5.74244765462975
S         4.84726597256748   12.92540340971671    6.11158858222525
O         1.54645142326762   10.69062088014237    5.15635056929423
C         0.29528201166274   10.95380165290707    5.30727048526739
C        -0.66913174403202   10.05061330059343    4.80044891429141
H        -0.30788775359006    9.16905292322152    4.29167823437232
C        -2.01074299208769   10.28422802582298    4.94785976194190
H        -2.72372885178681    9.57608491729020    4.54955443226723
C        -2.47020243815954   11.42715106410737    5.60839478136925
H        -3.53052243861482   11.59693571705159    5.71850837504691
C        -1.56527344181488   12.32622031775899    6.10927584679126
H        -1.90636049729814   13.21669434564407    6.61891291195559
C        -0.18151968605694   12.12170924788498    5.97360084417092
C         0.72454874482613   13.08565265845586    6.48458243633002
H         0.29862075099367   13.96440008802845    6.96544669900044
N         2.02675120384260   13.04914582770145    6.43000230751100
N         2.63739804742197   14.14131326595036    6.96548868214247
C         3.92681464863093   14.17379412920099    6.88553843078729
N         4.61743887123524   15.19701666007801    7.45017699481775
H         4.09473049367371   16.02114186806096    7.69548608607883
H         5.57172906608498   15.31961224574122    7.15802573285388
N         4.15163329295274   10.27184307877170    5.09720328305561
C         4.83164138865424    9.50660338898840    5.87699909136880
C         5.62802506392627    8.39201094204504    5.36430786261200
C         5.98635798400178    7.30936530205936    6.16421194483721
H         5.66138396093134    7.27496256700210    7.19340397261752
C         6.73880168587512    6.27785724076707    5.63394459788187
H         7.01453696073728    5.43912729839611    6.25522327916271
C         7.13908195864714    6.31985267679175    4.30800657267298
H         7.73002720320886    5.51512029062403    3.89681673439621
C         6.77364535581567    7.38720896456167    3.50291910152769
H         7.07805526275933    7.41348705241919    2.46664123300266
C         6.01127330851467    8.42057385634171    4.01749175190675
C         5.57360888248821    9.60497668487207    3.20974367175250
H         5.56918000510179    9.37540707854853    2.14418900490445
H         6.26844400647224   10.43536478379930    3.37806627022477
C         4.17743303267371   10.01959062507737    3.66920565822187
H         3.84983449078457   10.92833298512424    3.15509303583163
H         3.45016374602908    9.22619177691722    3.45208202931682
C         4.83461821672582    9.81999456410625    7.31466031187994
C         3.64629141777572   10.19654061297907    7.95072174267002
H         2.69198492156745   10.08059174172717    7.43504143545634
C         3.67069030188650   10.61455345695289    9.27057135796665
H         2.75091892600070   10.90161859296532    9.75813843885273
C         4.87086093333633   10.67290262588029    9.96054937845279
H         4.88895022017831   11.01691650287900   10.98391360321844
C         6.04696111473892   10.28742042266833    9.33865322406496
H         6.98242136576470   10.33164996128458    9.87641730954921
C         6.03252744408701    9.85930952822306    8.02374358559946
H         6.95472340090621    9.59050893045984    7.52960175384348

