56
CSD_code = OBIFUA | q = 0 | S = 0 | Stoichiometry = C23H25Cl2FeN5 | MND = 5
Fe        2.83833663607700    2.20127630649068    0.54543014070704
Cl        3.50440158911237    0.45744552714655   -0.44220767347765
Cl        2.68624129037561    4.28351165236261    0.97379306271731
N         1.74222965429957    1.49968863118712    1.73931204241552
C         0.43668431628109    1.31641472525929    1.41820989757838
C        -0.44140382676656    0.75368562466029    2.34392994410928
H        -1.48112955616937    0.62022827379298    2.09493389420044
C         0.04172030718979    0.37858782343245    3.58816983289588
H        -0.62652501428114   -0.05555100654814    4.31564170578689
C         1.37971082982202    0.56141694565774    3.90240026702665
H         1.76125879035546    0.27767430039668    4.86920663441563
C         2.22710939844725    1.12813225563697    2.95097392365650
C         0.15348350127476    1.79573932174291    0.09577078587782
N         1.21087139599178    2.29485432942042   -0.50403914061349
N         1.10892272736524    2.85003563037675   -1.73758572248216
C         3.62429052336122    1.43293499253326    3.06812405412001
N         4.11711238064676    1.99390367345922    1.98671674964114
N         5.40903316855220    2.40686882924590    1.94956945970889
C        -1.21036377124211    1.71583834228257   -0.51130290172603
H        -1.80457704242869    2.59917792442558   -0.27254257331666
H        -1.72697757284743    0.83722377438301   -0.13424520951627
H        -1.13316717057773    1.64263363621678   -1.59395378700360
C         4.41096851729407    1.12750692821888    4.30216957746186
H         4.01352106073404    0.23419268069285    4.77669016004669
H         4.36650864025720    1.95105773176004    5.01642057325465
H         5.45461382553350    0.95711944502905    4.04673839851823
C         2.38895094683733    2.98683321462428   -2.40625867452379
H         2.84839104513584    2.00235415654037   -2.50194841682306
H         3.06244976486091    3.64787604395040   -1.83895229639393
H         2.23496693987006    3.41602785282892   -3.39181498696472
C        -0.34195807642500    4.66310754014362   -0.97229721029578
H         0.04131497694154    4.54792808114558    0.03047270086929
C        -1.28033135372655    5.63810077865408   -1.25555717496457
H        -1.64563190255841    6.26908380678813   -0.45901659948508
C        -1.73867972037394    5.81603942697743   -2.54954790045283
H        -2.47020422010555    6.57955387783552   -2.76650999412201
C        -1.24910636114230    5.01273724433138   -3.56697828141731
H        -1.60243183912164    5.14632610600635   -4.57876804768946
C        -0.31289300416357    4.03426876119453   -3.29464378589193
H         0.05476958738701    3.40010064717935   -4.08775392125651
C         0.14865150862842    3.85298490968275   -1.99261477498532
C         5.89363852740650    2.63510061492402    0.60138935354817
H         5.79510418227095    1.71358078375940    0.02664946401504
H         6.93756394667605    2.93099444481768    0.64083891068111
H         5.32245680472049    3.43521470896854    0.10605141520331
C         7.28195141703904    3.25195376382164    3.22535059112787
H         7.93491561539069    2.59202186043950    2.67359568776710
C         7.79814806739834    4.07820762983675    4.20464594331592
H         8.85891723968962    4.06757446181721    4.40716841282130
C         6.96208936559336    4.91255541789741    4.92916270125253
H         7.36931561338613    5.55634323000046    5.69392257453446
C         5.60370567708144    4.92021506986609    4.66285003005868
H         4.94679298259229    5.57770528490143    5.21257407016221
C         5.07699335006617    4.09886496962110    3.68338081846863
H         4.02282214533939    4.13073266550040    3.45218919887263
C         5.91485217465651    3.25711434667272    2.95719609656310

