42
CSD_code = OBIGAH | q = 0 | S = 0 | Stoichiometry = C13H21Cl2FeN5 | MND = 5
Fe        2.05597722424193   15.56335993897933    3.00126559443772
Cl        3.93114414095497   14.62630808784268    3.17829629435963
Cl       -0.05205364020966   15.66103422637721    2.70679495378609
N         2.52217816977734   17.24936010292143    3.23359862663925
C         2.56406266325833   17.76506687532568    4.48980004974827
C         2.97613051344102   19.08009156255567    4.69888409426342
H         2.99950979084303   19.48792709893006    5.69601628666638
C         3.34933360303498   19.85075540118734    3.60786455266551
H         3.66944932405877   20.87069462899284    3.75395113556485
C         3.31370913256873   19.31353894439071    2.32972206067012
H         3.60084391907845   19.90392700268006    1.47521669706113
C         2.89641843157795   17.99439835032435    2.16097329438114
C         2.11253784497904   16.80442734770121    5.45409458403171
N         1.79334491476945   15.65133818090697    4.91742069042227
N         1.25394518722547   14.66474899583731    5.71256614070765
C         2.75784697567865   17.24800291850152    0.94430414182797
N         2.33682765214203   16.02180395832049    1.14089836629413
N         2.07020128250487   15.21896094755866    0.05418470386195
C         2.04484289838446   17.10920828559425    6.91670162106943
H         1.17178732253861   17.71508735413091    7.15987843068927
H         2.93243706149221   17.66675668024125    7.20796415397341
H         2.00553209938794   16.18148564853303    7.48235258482541
C         3.08810312149334   17.82921954971536   -0.39353969628477
H         4.00417315041871   18.41078831209997   -0.31551142134854
H         2.29820409531836   18.49137829070834   -0.74861406905060
H         3.23484207346511   17.02848169468800   -1.11427629867741
C        -0.11608502081466   14.91395225381974    6.13800622336231
H        -0.21666969069061   15.92721822261529    6.51450817717594
H        -0.36183837244997   14.21133090427138    6.93287764599665
H        -0.81666417594637   14.78302120733457    5.30575247760298
C         1.39309132724165   13.35944153541513    5.09528502678058
H         2.44300884343671   13.19193519451867    4.85856261920896
H         0.79072290535705   13.26822243333863    4.17718214255417
H         1.06261702720320   12.60761620480500    5.80873548672723
C         2.07347887616060   13.81666813513347    0.42536711264102
H         3.02172809129202   13.58223060937245    0.90723884575658
H         1.97621814819052   13.22339359331734   -0.48132125502186
H         1.24408758560923   13.56548159754547    1.10599152049011
C         0.86525456077064   15.57698360133745   -0.68058478934725
H         0.83994492358689   16.64619358598998   -0.86702517903578
H        -0.03458382910081   15.30260781797406   -0.11874655191271
H         0.87375984773099   15.04815271816682   -1.63253707556505

