32
CSD_code = OBIHAJ | q = 0 | S = 0 | Stoichiometry = C9H16N2O4Pt | MND = 4
Pt       -7.47860007875769    0.30727664807181    1.93140193265494
O        -7.25878188066429   -1.59763597332198    2.40595657574309
O        -9.10029550856064    0.18217639563047    3.05230242941908
O        -8.23470863806318   -3.19951651403339    3.57491761373330
O       -10.22992402866582   -1.26564210698877    4.28212159410666
N        -7.69633106722276    2.33184866615977    1.40770081878969
H        -8.42436163372747    2.40023629316601    0.69384378432033
H        -8.01010625547763    2.87970928438606    2.20825445443857
N        -5.74549332150525    0.46679800641173    0.74839977930493
H        -4.94083196089795    0.47282427442834    1.37816119688965
H        -5.64398851914156   -0.34676262350710    0.14261897477246
C        -8.20680665566536   -2.05542553516555    3.18531365866938
C        -9.28967618392071   -1.00714264104808    3.56749165650487
C        -6.40682515206191    2.81503754265257    0.88364282768989
H        -5.74191418022041    2.95634518559300    1.74264566142479
C        -5.81287507395008    1.72122810781817   -0.02133999951519
H        -6.49973562068178    1.55686351144342   -0.86092470287309
C        -4.45170184932219    2.16507489807487   -0.55699634848177
H        -4.04737400837993    1.39925919678913   -1.22147043457908
H        -3.75482103033906    2.28639883213120    0.27417341380912
C        -4.58539262121685    3.48112238237083   -1.32182372176791
H        -5.21414603404435    3.31607945194925   -2.19925236047892
H        -3.60294547522242    3.79598647209486   -1.67409701203909
C        -5.20323492159968    4.59567955779447   -0.47054057699799
H        -5.41024232949690    5.44306224529438   -1.13248560744349
C        -6.54450457761940    4.12620433033066    0.10876926998242
H        -6.95052971008189    4.90020241167384    0.76275104166922
H        -7.25028687129074    3.97596317727277   -0.71259416561677
C        -4.25012368398936    5.09312544754752    0.61451416477285
H        -3.97413867029768    4.30716283995962    1.31064792302089
H        -4.71118661590818    5.89984424495274    1.17846845231866
H        -3.33991584200656    5.47641599006688    0.16102770575845

