61
CSD_code = OBIHOX | q = 0 | S = 0 | Stoichiometry = C24H26N4O6Zn | MND = 4
Zn        2.15501789356421    0.43371540362230    7.40045991957601
O         1.72981070788876    2.40625156518343    6.85394084809510
O         2.04273324459141    0.50312790005944    9.47969059366048
O         1.83834057376330    0.78436683297165    5.39742240582469
O         0.32713767210728    0.01925288113290    8.22231076118324
O         2.39454847169181    4.75950734998675    6.14392481036894
O         1.88022615542404    0.25827687003151   12.02714366592056
N         4.14165728428131    1.10138322237673    7.20069343664944
N         2.55812653561176   -1.55224358452211    7.23808385653759
N         5.22668886898805    2.91250789981191    6.59861297903659
N         2.87234598115107   -3.65635237919708    7.75405079997828
C         1.80647403649532    2.00235454723164    5.65525729455860
C         0.81745966121688    0.18486642834806    9.35325766553609
C         4.46293048744007    2.33421214513215    7.54818154992631
C         3.13920717483634   -2.37427674551130    8.08650814973739
C         5.39535380907937    1.99443153035889    5.59806213163832
C         2.08029779114092   -3.62989504150589    6.63770055342060
C         4.72289244596059    0.87913260806453    5.98654598945917
C         1.89248521489634   -2.31874046799719    6.33123758136309
C         1.95738931996361    2.99965223116125    4.56816063043485
C        -0.00723370034749   -0.01956385234716   10.56649588788791
C         2.27918784835588    4.33204213587781    4.87331198116852
C         0.57055240381046    0.02470427028642   11.84660085216789
C         2.51609490357498    5.22850498196478    3.83151429781159
C        -0.23910251206874   -0.19263402922672   12.96256360754822
C         2.41414609852982    4.81467063922558    2.51937014172259
C        -1.58728934921286   -0.43875275640760   12.80997646375470
C         2.08707715450657    3.49981682748477    2.21648407104656
C        -2.16021215153465   -0.47944094998433   11.54503967166453
C         1.86920069275488    2.59947595371314    3.23889589059344
C        -1.37051802472936   -0.27284276277991   10.43392074613634
C         4.08751118148128    3.00798407791833    8.81041047179102
C         3.98577648980422   -1.98680320935595    9.23632075402500
C         5.69501531874517    4.26993131366179    6.60314550725760
C         3.33187352544513   -4.82440449708070    8.45009090986265
H         5.95626623128434    2.21419756906699    4.71337885374988
H         1.72468536251025   -4.52630585037439    6.17325512111746
H         4.60310397045892   -0.05677543060961    5.48169682706387
H         1.33948582989761   -1.86173130532154    5.53753206354036
H         2.10078040854764    3.99092613937979    6.70958788243388
H         2.25282278641634    0.42355194497946   11.12115645531119
H         2.76820119615411    6.24841035744593    4.07903577475768
H         0.21776892662074   -0.15679492319813   13.93947935678234
H         2.59113755461425    5.52348323179908    1.72339050321774
H        -2.20090895116651   -0.59955057282541   13.68460951393921
H         2.00842522753072    3.18425578447148    1.18717192149358
H        -3.21675294001038   -0.67068463735319   11.43431448659395
H         1.62680671698542    1.56726853475284    3.03786813403492
H        -1.78232277108436   -0.29820511437509    9.43665023334179
H         4.95991914181922    3.12349737143224    9.45469136752328
H         4.06708250298444   -0.90525966273572    9.25739143969846
H         3.67271257713747    3.99346158642052    8.60778084960020
H         3.54094408276836   -2.32509885682029   10.17201727477897
H         3.34313226964724    2.40519572732101    9.31965817443365
H         4.97932531889554   -2.42602332288006    9.14863091122920
H         4.84712335752378    4.95725285504594    6.55145277891233
H         4.42271907277959   -4.87526786113249    8.43509636955997
H         6.26065034409072    4.47405815793674    7.51361970073511
H         2.99951939063411   -4.80408613319122    9.48971283271917
H         6.33569176660233    4.43072073582511    5.73862105239736
H         2.92947741714613   -5.71231566473638    7.96691324369829

