89
CSD_code = OBIJIU | q = 0 | S = 0 | Stoichiometry = C34H44B2N8Ni | MND = 4
Ni        5.31489057825124    4.92866098076689    4.74920106975671
B         6.16895539222792    2.28795605215707    3.43061132954253
C         6.69838929417437    0.91967206334192    2.65989852632578
C         8.22964633927503    0.81362777027039    2.77472151133705
H         8.69983755637120    1.70655124817431    2.37132272634834
H         8.59015067776520   -0.04285965498782    2.20534045601314
H         8.56039804735983    0.69502160966592    3.80161276933439
C         6.40960277147688    1.00598831872195    1.15098115727842
H         6.95802636310858    1.83324219473620    0.70819783448537
H         5.35372376949934    1.15619161363521    0.94521360925558
H         6.72331521115271    0.08723347864790    0.65639521151415
C         6.08691358166303   -0.39696012861075    3.17400304519528
H         5.98985987866359   -0.41599318066140    4.25497242214561
H         6.70764105629234   -1.24084022522568    2.87332601651508
H         5.09822183533831   -0.56659959889315    2.75756907765791
N         4.16773145649057    3.68330899428201    3.89329373785266
N         4.62876805199389    2.53086673603496    3.39417367336058
C         3.61261670483184    1.83695302498962    2.88243352616695
H         3.74227336747763    0.87785048343545    2.43045250548660
C         2.44801871524458    2.56235957717437    3.04780348586296
H         1.45732791763553    2.29020633605817    2.74719243996715
C         2.85286811338521    3.72390618901136    3.68922955483978
H         2.25371171519351    4.55724022147996    3.99337911193793
N         6.15000124592019    3.46983308670411    5.61553642382450
N         6.46101510139547    2.34410935546449    4.96332124956065
C         7.02741271798189    1.48767510558333    5.81429763310548
H         7.36164430691011    0.51618732650167    5.51914891999534
C         7.09125847496738    2.07573656612256    7.06339973704589
H         7.48877588325478    1.65764719771832    7.96515278425261
C         6.52600116155839    3.33005137239704    6.88469727576009
H         6.38627378650100    4.10667314147248    7.60831030574792
C         6.84315165594886    3.62015306755721    2.78817856021864
C         6.29079616108539    4.25734392796970    1.67335628518118
H         5.38016285164295    3.86314452734878    1.23996902974369
C         6.89256724038752    5.35321319257417    1.08171143118381
H         6.43246362484725    5.82116366798418    0.22110479892223
C         8.08442395881041    5.86424400133310    1.57607163395432
C         8.67092009554142    5.22075375021858    2.65603988317888
H         9.61518687306224    5.58371186961197    3.04047514132888
C         8.06632461262343    4.12195594765013    3.24109338735978
H         8.57531818928553    3.61345768366028    4.05040997410886
C         8.73670513112656    7.05273635049582    0.93650015374688
H         9.34024093463355    7.59811513971955    1.65877595248251
H         7.98984055189657    7.72607942943814    0.52109486698310
H         9.38998890907797    6.73187034443512    0.12385804878991
B         4.46049944157523    7.56894162224672    6.06813490002140
C         3.93086806343615    8.93702382699714    6.83906166686286
C         2.39960230169617    9.04287536396087    6.72418332234244
H         1.92952801453234    8.14980214233332    7.12737960654006
H         2.03894505626137    9.89919392620241    7.29372051296189
H         2.06887994704387    9.16164005927658    5.69729686791207
C         4.21963532231103    8.85048543177133    8.34797051227754
H         3.67131105422273    8.02307645398714    8.79058200255630
H         5.27553470671193    8.70039396002187    8.55373961360582
H         3.90577538456964    9.76910832768586    8.84270898612959
C         4.54215970623535   10.25382265364197    6.32519744985360
H         4.63939722700399   10.27299262012147    5.24425923400696
H         3.92125809533014   11.09756926210807    6.62585884630272
H         5.53075375880280   10.42361800443577    6.74177546899094
N         6.46198061332225    6.17409518003467    5.60498965973014
N         6.00073795217276    7.32628049315972    6.10450631028015
C         7.01681564511615    8.02032944687292    6.61621022620024
H         6.88698909499095    8.97926157539964    7.06850506406503
C         8.18157796191661    7.29529157558634    6.45036776265924
H         9.17226225960853    7.56763878183769    6.75082799948088
C         7.77690355261509    6.13381118325149    5.80870312266279
H         8.37619891190597    5.30073267961898    5.50412152665634
N         4.47991244178229    6.38755422602816    3.88293625484852
N         4.16852092926738    7.51303628979986    4.53538549135826
C         3.60218902340864    8.36959852910634    3.68449198346015
H         3.26766147227845    9.34092678423070    3.97983341250069
C         3.53880288337673    7.78187448254362    2.43520622592994
H         3.14144807197631    8.20014083546012    1.53346335600853
C         4.10428282733575    6.52762703893736    2.61370302765450
H         4.24443496885368    5.75123554906553    1.88992135269854
C         3.78652567620637    6.23651453271613    6.71029320175298
C         4.33900047182940    5.59916868647279    7.82495921399329
H         5.24942786531332    5.99355302326999    8.25858124733012
C         3.73749282410600    4.50296354960312    8.41626436254453
H         4.19766677554094    4.03492962998810    9.27676866771670
C         2.54581245922956    3.99175094044621    7.92167094875947
C         1.95915051518010    4.63543997672167    6.84191748576055
H         1.01502651820419    4.27234336649198    6.45730113794327
C         2.56348377457606    5.73456962625288    6.25720463206609
H         2.05436731680822    6.24318753288183    5.44805697095206
C         1.89395818925265    2.80274743232563    8.56071879384687
H         1.29064480811908    2.25746014471591    7.83818103809154
H         2.64107034682199    2.12947004506031    8.97580434405600
H         1.24054390580510    3.12298305116711    9.37350791397154

