41
CSD_code = OBIKOZ | q = 0 | S = 0 | Stoichiometry = C11H24Cl2N2SiTi | MND = 4
Ti       -2.12578514711205    1.83051472534806    9.18256200864177
Cl       -0.83584959293984    3.02355220926437    7.92349875024937
Si       -2.12570885963677   -0.82091462208760    9.18248420919809
N        -1.37262693474812    0.44202287612669   10.12495744850173
C        -2.98665876482520   -2.33468111141565   10.01154079161545
H        -2.83673135617360   -2.44630254944159   11.08229334455836
H        -4.05072245809156   -2.45521587779411    9.82421065565475
C        -2.12577866497023   -3.30816186084158    9.18252051237910
H        -2.73619741070959   -3.94847554123355    8.54809499989349
H        -1.51540520848309   -3.94850740642253    9.81695743420412
C        -0.14446064952032    0.50754157860561   10.86610434170758
C        -0.11826880789612    1.88494982450288   11.56002997210991
H        -0.12810838060575    2.68058164215404   10.80027529400290
H         0.77539304130922    1.99553158772162   12.17117133074325
H        -0.99959413117890    1.98719779390818   12.19955947842584
C         1.04757499722539    0.40180916047168    9.89748743010782
H         1.07725257056203   -0.59156183355038    9.45653361275948
H         1.98552699193921    0.58761413171984   10.41569709244280
H         0.92552654167015    1.13350380298228    9.09349159691458
C        -0.07962303741086   -0.61061598085229   11.91380829979325
H        -0.94058361675126   -0.54051686860989   12.57473900452636
H         0.83085020947765   -0.53213851410634   12.50254657047618
H        -0.10088204285167   -1.57773791056759   11.41888539103273
Cl       -3.41595965899620    3.02300132472684   10.44190357744911
N        -2.87871412620010    0.44203483875709    8.23996444351531
C        -4.10679289278557    0.50753936925553    7.49866815633524
C        -4.13295201415319    1.88497560484225    6.80479784276043
H        -4.12321276662726    2.68057774519944    7.56458251436150
H        -5.02654970360709    1.99556069291846    6.19356281189985
H        -3.25156074338021    1.98726736739642    6.16536861543623
C        -5.29895271427405    0.40172075587430    8.46711943932409
H        -5.32864658848516   -0.59167165016661    8.90801886481794
H        -6.23684923320389    0.58751850203226    7.94880105191495
H        -5.17703167815858    1.13337942406571    9.27116513791695
C        -4.17145771160258   -0.61057157169429    6.45090806479640
H        -3.31042653605517   -0.54040317631500    5.79007985445041
H        -5.08186687400160   -0.53210839881274    5.86206842835874
H        -4.15020688781857   -1.57771379439587    6.94579064622087
C        -1.26483314695655   -2.33475324868599    8.35348236889499
H        -1.41474612715531   -2.44640326478259    7.28273086236212
H        -0.20077988481845   -2.45533977609701    8.54083774924650

