38
CSD_code = OBILIU | q = 0 | S = 0 | Stoichiometry = C13H18O3P3Re | MND = 8
Re        3.01460385648767    3.91353437845050    9.53650255095298
P         5.02074832839545    5.81649864558385    9.53654357297238
P         2.13138672500656    6.22944934805768    8.47555376635225
O         5.50026502660028    2.08003360029384    9.53644644061190
O         1.55015758055641    2.41289738245580    7.26585717902706
C         4.55338605496705    2.72451527990326    9.53632531464972
C         2.10278711733121    2.92938066659345    8.12642700965717
C         3.86002205162294    5.90390308623669    8.19827542654327
C         4.41223867541125    5.89836688577724    6.78287061472559
C         5.11242456618773    7.24616860851496    6.56535133923969
H         5.93062245849358    7.37027035718160    7.27609000588417
H         4.40937449095266    8.06718919002387    6.70194136979014
H         5.51810153173932    7.30144887087940    5.55767392524108
C         5.42553918194259    4.76090704118648    6.62043384608338
H         5.83743939721878    4.76391837599665    5.61345350806317
H         4.94520890799584    3.79691457088666    6.79715683406481
H         6.25011977822790    4.87090915767515    7.32645493251465
C         3.30029382051348    5.72666326255646    5.74810444889695
H         2.60214172316756    6.56238837745165    5.78492614973115
H         2.74904246264379    4.80347266308794    5.92758884061554
H         3.72504437252514    5.68246672836073    4.74742005067287
P         2.13289038950333    6.23136421807589   10.59477426001704
C         2.10269427545932    2.92946377514669   10.94668023540521
O         1.55033548660675    2.41276088039027   11.80736778953454
C         3.86052454029485    5.90365630640530   10.87499012324715
C         4.41235188456298    5.89832523000474   12.29052794871501
C         5.11251104382037    7.24617720454868   12.50788045691856
H         5.93071246161384    7.37020939812802   11.79713395318638
H         4.40943876346987    8.06716070451859   12.37116402910516
H         5.51816042109232    7.30158906442888   13.51556042205435
C         5.42553351562326    4.76079343480739   12.45292776274374
H         5.83734810683718    4.76382403791305   13.45993581623723
H         4.94518963878247    3.79681825396974   12.27616793899798
H         6.25016536429577    4.87077451773884   11.74696690350272
C         3.30043092311275    5.72658856643052   13.32530596395344
H         2.60228112889519    6.56231935991358   13.28854249466365
H         2.74916315174359    4.80341037246180   13.14581949262433
H         3.72522079629909    5.68236819796424   14.32595728280329

