60
CSD_code = OBIMAP | q = 0 | S = 0 | Stoichiometry = C24H23B2ClFeN8O | MND = 5
Fe        6.15608981083186    6.09543716502965   13.18665852157461
Cl        6.53305369589078    5.11967170498336   15.02976167821656
O         4.86118527523671    4.61405618581582   12.48194883175862
B         4.88346741749442    4.54432407481799   11.03651410347755
B         3.52156636234083    4.66197881953989   13.04791639177826
N         5.40065216120359    5.91639591458003   10.50277701133499
N         5.99433386266418    6.75595156917077   11.35680637263708
C         6.43736826437749    7.78720926853858   10.64238402162311
H         6.96961993272613    8.59748250682625   11.09701330633846
C         6.12592675411083    7.60768878098631    9.29600854757784
H         6.35061973244603    8.26346002286374    8.48038630017425
C         5.46826264550208    6.39664039162264    9.25378283193676
H         5.06016258156918    5.85535668789275    8.42490368186839
N         3.36089628096524    6.04298325290231   13.73058755721831
N         4.40571040246375    6.87776395037659   13.83926290218383
C         4.00655537441839    7.89991629551727   14.58852734555791
H         4.67275032563687    8.69610844939541   14.85641013742120
C         2.67440957175654    7.73439251054918   14.96392274708316
H         2.07777410126643    8.39129537744624   15.56229157452979
C         2.30797888920446    6.53224856782531   14.39868747806655
H         1.38129051890873    5.99693943031575   14.44259306569750
N         3.37839833130734    4.46499996687043   10.67521297962244
N         2.63600631213664    4.62344141043063   11.75906915318942
C         1.35317166811227    4.60632148593515   11.42054620932439
H         0.57616936313856    4.70214246601406   12.15095714247106
C         1.27080732386929    4.44152053360724   10.04400738265415
H         0.38456352718519    4.38770477954358    9.44600527956360
C         2.58672735657900    4.35643841911645    9.61276462945020
H         2.97721795024864    4.22546170419956    8.62411919353000
C         5.86134066310941    3.39310409572546   10.48479718226485
C         5.52512565658939    2.39798832980781    9.57491445640106
H         4.51709442377562    2.34552951152554    9.18654450008236
C         6.45756284016224    1.45981603598159    9.16381302412604
H         6.17465003303543    0.69318632594498    8.45609931395389
C         7.74823325920762    1.49924350727678    9.66037144090513
H         8.47545727940609    0.76688853183076    9.34064956045987
C         8.10144531978960    2.47666233692783   10.57665590035845
H         9.10474743401535    2.50625782232244   10.97660545420169
C         7.16474434032927    3.40905035883983   10.97876764958988
H         7.43754521573213    4.17247497965150   11.70866470919727
C         3.12307851149822    3.46123055261614   14.05107526395959
C         2.49308419065540    2.30335045392077   13.60023824008982
H         2.25431573763430    2.19450792065749   12.54986181588869
C         2.16555491697060    1.27449100015281   14.46590815896158
H         1.67436951057663    0.38851953985462   14.08724232088102
C         2.47093530766171    1.37770428159664   15.81143009964873
H         2.21622039600027    0.57550166751127   16.48959524731642
C         3.11407038047899    2.51113416988500   16.27735713412709
H         3.37148250672800    2.59603336033305   17.32324226608407
C         3.43354732262788    3.53792082518812   15.40715490552251
H         3.95553406740663    4.40485595985560   15.78152485461050
N         7.30914261848790    7.54680724701337   13.72912420030327
N         6.99088808597636    8.84039447710715   13.61146381403243
H         6.09426406737423    9.09326033628746   13.22894699334762
C         7.98279093927763    9.64139258741507   14.05472940839402
H         7.90290055548529   10.70927959743201   14.04039633465020
C         8.99462574719603    8.81493019569600   14.47863763741111
H         9.93857764198299    9.09867052326288   14.89423297395113
C         8.52527064978404    7.51464450779335   14.25578798852821
H         8.99886458743958    6.57843726785171   14.47464077290516

