62
CSD_code = OBINAQ | q = 0 | S = 0 | Stoichiometry = C19H34N6NiS2 | MND = 4
Ni       -2.63103484868828    3.96979375904435    2.97310298189815
S        -4.15894033961734    4.06891857591538    1.42720316818397
S        -3.85642929475990    5.26426049596089    4.21447283755785
N        -0.95119867827815    4.47567141352396    3.96398560029000
N        -0.18772997508508    6.22002095602615    5.33077213919183
N        -1.36562051704672    4.42553697447222    6.24622295330550
N        -1.67498147589747    2.57863616565647    1.85310414855253
N        -2.03117641669528    1.08641033203918    0.07668757539026
N        -3.21843137282163    0.85014896731169    2.07525899489512
C        -0.48447909695490    3.06991363815876    1.19237017302940
H        -0.73670546465288    3.87421026507650    0.48897406541491
H        -0.01480966974693    2.25508852297253    0.62499205253012
C         0.51972303603724    3.61967870900257    2.20563952301094
H         1.43475700960942    3.88297811944730    1.67056317426056
H         0.75635968008290    2.84829389045007    2.94070699819960
C         0.00140427387544    4.86258637561901    2.93595834898249
H         0.85119199894689    5.38289514674156    3.39661069010018
H        -0.45873480240339    5.53840029468393    2.20003874707474
C        -0.88111058700191    5.04377745376925    5.12957937398357
C        -0.50897759745113    7.38456554308529    4.53780252777658
H         0.37347075298570    7.77072706877191    4.01870666157140
H        -0.90414099556690    8.17739370233742    5.18226927466023
H        -1.27569345909961    7.12928441939047    3.81053249230595
C         0.56204143622393    6.47709459942752    6.53435323767774
H         0.71910944605907    5.54472050724920    7.07021302334762
H         0.06698155317288    7.19422117645109    7.19920465302320
H         1.53565677121282    6.89411715205287    6.25799720342451
C        -2.11823153871544    5.17924862473053    7.22807719408758
H        -2.00101118477693    6.24518304198194    7.06544975583680
H        -1.78200709897501    4.92363718718763    8.23578999381889
H        -3.18240374289781    4.94585162511960    7.13621891382733
C        -1.77854667898298    3.04678894753811    6.14613720000243
H        -2.78841234666517    2.96302481750183    5.72843827650087
H        -1.76578230615687    2.60739138968029    7.14424484975074
H        -1.08284892221889    2.51566280100225    5.50080476700411
C        -2.32028650064012    1.58058793355885    1.33445195260256
C        -2.08371194966079   -0.32728155186305   -0.20394189769109
H        -2.05902017559066   -0.88300633714608    0.72967283185713
H        -1.20724175176871   -0.59619570095410   -0.80112926263566
H        -2.97679930249810   -0.61824759066514   -0.76940384674961
C        -2.13635726029117    1.94674961050151   -1.08009045639472
H        -2.39648720891724    2.95369920590303   -0.76603903854525
H        -2.93141766277342    1.58650022127942   -1.74204871747729
H        -1.20029192322928    1.96691852870390   -1.64594699916522
C        -4.52116655834609    0.58146188602590    1.49317082014321
H        -5.23480400177363    1.35540719857443    1.79392045175041
H        -4.87992065230717   -0.39157615128569    1.83315179707438
H        -4.46712785649396    0.58651817434751    0.40992995759084
C        -3.28627907705521    1.13326875689299    3.49078657076476
H        -2.29821870306485    0.99866161459658    3.92806284536872
H        -3.98794745765217    0.44301226600053    3.95502686809307
H        -3.62820609813143    2.18064345900333    3.68045738251423
C        -5.48424867803122    5.01223149225161    2.06946947663834
C        -6.65358148659151    5.21375444182289    1.35011378301107
H        -6.75962418477043    4.75808416986733    0.37613211136350
C        -7.65745579177308    5.99893552978832    1.88601575980304
H        -8.56694881370986    6.16014633108273    1.32513467738884
C        -7.49945486356651    6.58212143729978    3.13557509098282
H        -8.28636495219600    7.19721677666241    3.54813565506430
C        -6.33974782318111    6.37861937428062    3.86011051251815
H        -6.20437738392481    6.82319181438960    4.83540286757047
C        -5.33146942908367    5.58534444971672    3.33089523608324

