119
CSD_code = OBINAO | q = 0 | S = 0 | Stoichiometry = C50H65MoNO2 | MND = 4
Mo       17.89308993146875    3.38950872418075   13.34098122655415
C        21.18113121822465   -1.49933658677181   12.27735667500027
H        21.11128757981159   -1.34619039236336   11.19472554121351
H        22.23542767525275   -1.66380246849778   12.51295704745202
O        19.37972279991632    3.29009605211382   14.61597812191716
C        22.20462413493335    3.16726073297037   13.90542748588115
C        17.74474400800554    1.07426660935005   14.88855290178436
C        16.53749764253415    1.43993650674559   14.25475106191601
C        18.45517768136848   -1.32257384174290   13.46700356296181
H        18.39803803830895   -1.74971226996268   14.47517968786369
H        17.45444046992064   -0.95739621221855   13.21887740962578
C        13.91174286821868    0.72986233443526   12.96670259712985
H        12.98355741276620    0.93566756281144   12.43766577168351
H        13.93760455897623   -0.32804095809220   13.22341113979619
H        14.74410776229141    0.94977714908464   12.30288084521995
C        19.01525987123507    1.03865598915596   14.08945337624884
O        16.63073186891528    1.89165126473642   13.00543896168377
C        16.57036772757168    0.57942560923177   16.91666260562353
C        20.69930056857534   -0.25252928361749   12.96923251569579
C        17.77005997351686    0.65304046534348   16.22188197525141
C        17.41584495433164    4.30930953141441    9.59399290036395
C        18.05091541187218    6.50992715157744   17.21315291597701
H        18.92295667173614    6.02645389189155   17.64874946500969
H        17.32602863998684    6.66950823814638   18.00844313029298
H        18.35514907937486    7.47553459278253   16.81631703157189
C        15.30018300825868    6.57460894122215   13.11204046135625
C        19.09388269293463    0.35516398733709   16.87574727857670
H        19.72375647090147   -0.22367804760511   16.19460367063319
H        19.60955470293366    1.30787789835054   17.04673523976902
C        19.41711350438944   -0.16363266343767   13.49173539031947
C        15.31136376201702    1.29170203591125   14.94366577196307
C        23.62488881993594    2.80356618529325   13.46148274564988
H        24.29013558714504    3.63775152530250   13.67503906318225
H        23.66625104159125    2.60818153125688   12.39228931510573
H        23.99463666088587    1.93308732917458   13.99862467696100
C        16.51933294508340    0.16247920480701   18.36218004006323
H        15.76542519193892    0.75683150373570   18.88413286360740
H        16.19907145805706   -0.88406559178747   18.41473963351872
C        15.37670118281780    0.86436946184887   16.25796345919299
H        14.46708151259672    0.75561602651464   16.82655569071723
C        21.57254064136077    0.82623911296676   13.10567770081104
H        22.57785636666109    0.68928816714238   12.74029431493563
C        18.71217068926433    3.48587517856133   11.58602281204105
H        19.37103388365652    2.62134476859501   11.42008363823237
C        19.87414782159271    2.16078104346712   14.12098958633206
C        13.94933634750390    3.07488384920796   13.86283964631389
H        13.00409410166566    3.29781181046993   13.37148560941993
H        14.76469185199464    3.33257858408535   13.18390245667983
H        14.02626783518016    3.69908268240259   14.75248784196208
C        18.71835096593043    4.39416436106687   10.39032562374200
C        21.77114011212449    4.42040480707751   13.13427820618588
H        22.46678042147295    5.23488087585145   13.32813614043464
H        20.76979487993002    4.73968456646025   13.43249404461140
H        21.76776398642091    4.21646687465815   12.06544054477364
C        14.53116377069612    7.58293601360016   13.66797356065125
H        13.80488995029842    8.09432047139460   13.05427028263307
C        17.47580707984154    5.62885839583071   16.10490453330842
H        18.30378930749286    5.35381185115502   15.42882339052693
C        15.27552888087913    3.28864280806802    9.13206648332373
H        14.52372939573771    2.55592095394362    9.38733872550127
C        16.43160050205690    3.37296687604920    9.88943714573550
H        16.56750297261686    2.70173885748263   10.72845644467742
C        16.24529880136095    5.90171641800998   13.91967027588556
C        14.67108136082812    7.94607887339075   14.99383997913024
H        14.05123975538232    8.72454364936835   15.41366277348419
C        18.87641766904441   -2.40472923014233   12.47925976753678
H        18.70694506984390   -2.05595405741104   11.45815816834147
H        18.26918985466827   -3.29876894279230   12.63427703083094
C        15.62231203264426    7.31836110654051   15.77955475484958
H        15.73576873196822    7.62284729078761   16.80836642526921
C        16.42508128064712    6.31655479267236   15.26647833232537
C        15.08118702831748    4.13311867815677    8.05360817849273
H        14.17998391054207    4.06796344194295    7.46117538089797
C        17.21129741791858    5.14423422723063    8.49928604218246
H        17.95676948493413    5.87537112196468    8.22352501163297
C        16.90041884666857    4.33789222997866   16.69998435775285
H        16.48733037369101    3.70464898027416   15.91211621882192
H        16.10156837788018    4.57040269171202   17.40291566937406
H        17.67462068302019    3.78110615312877   17.22531537792106
C        15.16583922057227    6.23329478587932   11.64881382869920
H        15.81905054436956    5.37698812422228   11.44346846413005
C        18.94772454853953    5.83491333187152   10.88102285852600
H        19.94893394022318    5.92264618374063   11.29691105336621
H        18.22760271545019    6.06967044800549   11.66214430321653
H        18.84789905716436    6.55298166841015   10.07207135307418
C        16.05837828878429    5.06094605664845    7.73931882676118
H        15.92382810128673    5.72438288915023    6.89643816903099
C        21.21194162667661    2.03445749316736   13.67294954396894
C        13.99651896260254    1.58746581036508   14.23768599237494
C        12.77610126259329    1.27262280665759   15.10803676477414
H        11.87105377225780    1.46618723994208   14.53593026104204
H        12.75093363957824    1.90159238826910   15.99499501733470
H        12.76659212847983    0.22735818595023   15.40910460197699
C        13.73528530379021    5.84651318883606   11.27245483790772
H        13.38619205245701    5.02737812200654   11.89315687739358
H        13.70693751710234    5.53001363313915   10.23244583288309
H        13.05634592231525    6.68716550651513   11.39550117527702
C        17.87313338762482    0.30649489340443   19.04688239620004
H        18.12211079224544    1.36472565991246   19.15364527892216
H        17.83295756600875   -0.13296104505587   20.04549528991743
C        20.35512991468734   -2.72126783918961   12.66258609609299
H        20.54497871264337   -2.98092411040632   13.70675079029418
H        20.64435227465214   -3.57382873891606   12.04509485196548
C        18.93722159313343   -0.38091170901377   18.20121763259943
H        18.63595202024678   -1.41470445202705   18.01571632745256
H        19.89450987085960   -0.39932420954969   18.72597725025053
C        19.85731893381007    4.00607621561163    9.42696612234078
H        19.68482691287966    3.01024437521590    9.02257485162166
H        20.81137394062325    4.00780169947280    9.95043566123338
H        19.92356546363738    4.70462792539942    8.59636084100255
N        16.96877027588157    4.85495643597753   13.47619558226366
C        15.62198565661332    7.41871519364365   10.79300270425517
H        16.61738520699874    7.74226967916121   11.08509560948658
H        14.94142907342357    8.25927868098715   10.91025296841436
H        15.64259406290743    7.13101557829002    9.74492684413152
C        22.23742308370689    3.47379812172976   15.41041212081465
H        22.94837351597119    4.27151294217171   15.61559353661234
H        22.53744991620820    2.58892762027246   15.96960115232753
H        21.25571968660307    3.78976916504036   15.75483259814606

