98
CSD_code = OBINEU | q = 0 | S = 0 | Stoichiometry = C31H56N6NiS2Si2 | MND = 4
Ni        0.00016803852836   -9.96802234189368   -0.52840416440672
S        -0.87386171351636  -11.39844289259287   -1.93651241219939
Si       -0.75025619508716  -14.58959577345681   -1.94342888758081
N        -1.41212533466501  -10.39473458754991    1.00775292883202
C         0.28943221865797  -12.13309804272555   -3.02568194963524
C         1.13708212269109  -11.37307308229077   -3.82565417239461
H         1.14708267147016  -10.29821359132457   -3.72503093775719
C         1.98457294068241  -11.98556372511022   -4.72608201167743
H         2.64107564350649  -11.38137308057776   -5.33606734356400
C         1.98260240095342  -13.36487139794302   -4.85105403802674
H         2.63647465926229  -13.84964508795858   -5.56193233724254
C         1.14406134077454  -14.11814740918727   -4.04941132106207
H         1.15219095212338  -15.19400556096597   -4.14119512406993
C         0.29394661562098  -13.53304524204437   -3.11863326241197
C        -0.05940192991791  -14.33498486476338   -0.17743596073272
H        -0.05023224591682  -13.28089998422192    0.08101060663078
H         0.96323589218587  -14.69552902139471   -0.11000605156015
H        -0.64599245709858  -14.86466397125929    0.56745056146648
C        -0.51452711622971  -16.43354141665487   -2.37177947832908
H        -1.10019054770275  -17.05284101799263   -1.70049130491664
H         0.52102966271680  -16.74239405596681   -2.27753185847273
H        -0.83849889179169  -16.65439054689296   -3.38321558230429
C        -2.62907798742974  -14.25550703576353   -2.03974786831871
H        -2.86734814260088  -13.23929248658206   -1.74750216460541
H        -3.17661465838488  -14.93555036089131   -1.39309317063038
H        -2.99379110527720  -14.39895883970803   -3.05258512731151
C        -0.76839253037361  -11.01218542053910    2.14439442571814
H        -0.05642963414185  -11.76529222737428    1.79035778898941
H        -1.49092037321229  -11.49985005583474    2.80949015332996
C        -0.00000052561936   -9.96810365164479    2.97430478566059
C        -2.67983623741307  -10.50860248635575    0.79482298029188
N        -3.33029604377306   -9.58795886982710    0.00000882226474
C        -4.10997013677969  -10.08728280575696   -1.11759513766448
H        -4.49358555257712  -11.07972124247765   -0.90212535924999
H        -3.48729363231236  -10.15193487109435   -2.01620327609399
H        -4.94617825312732   -9.41296569675962   -1.30936574958217
C        -2.59306351776887   -8.38268371110048   -0.31760240142767
H        -2.33988013697952   -7.86797451858240    0.60877801297900
H        -3.21508010260510   -7.73614081233254   -0.93285165835690
H        -1.65824350870823   -8.61105141811432   -0.87413697824008
N        -3.49459969493501  -11.42752118626060    1.42375920623294
C        -4.87413509524851  -11.12971573404817    1.71854539806767
H        -5.03711950651989  -10.05747008364692    1.65362645233734
H        -5.09367902527717  -11.46339156676103    2.73730823431159
H        -5.56916203554746  -11.63920569710472    1.04093745383397
C        -3.16474216658101  -12.83238964816755    1.44446825992224
H        -2.18538574010309  -12.98980884168153    1.00463725101604
H        -3.89654556951803  -13.39673385728721    0.85497617421881
H        -3.17667614830323  -13.22388366543538    2.46663138735767
H         0.70055773486582  -10.50700214823275    3.61593014369511
S         0.87409679295945   -8.53637214205606   -1.93538987117673
Si        0.75008948500139   -5.34532149963100   -1.94337405879025
N         1.41217243020980   -9.54115063698528    1.00784908220865
C        -0.28928946401260   -7.80221672408948   -3.02471142113323
C        -1.13701915987187   -8.56265036583076   -3.82425990695757
H        -1.14703763738928   -9.63745791795035   -3.72293289844138
C        -1.98454577001032   -7.95067951714544   -4.72498607336212
H        -2.64105706826858   -8.55523551387542   -5.33460004151481
C        -1.98251014232135   -6.57143010387136   -4.85071550482158
H        -2.63624965936459   -6.08703485628350   -5.56196589757831
C        -1.14403287103037   -5.81777905117219   -4.04939595475867
H        -1.15229752416644   -4.74195253854471   -4.14157780068175
C        -0.29391923157982   -6.40235980675866   -3.11828699723369
C         0.05901229166172   -5.59934004789863   -0.17738670651605
H         0.04961029308083   -6.65336333415023    0.08129396937258
H        -0.96357709983051   -5.23860121836843   -0.11022540191674
H         0.64556703605573   -5.06960015934150    0.56748863245670
C         0.51487378920277   -3.50143882794419   -2.37235341089782
H         1.10072094250514   -2.88210465333048   -1.70124597633591
H        -0.52057658883490   -3.19219758965285   -2.27825318050023
H         0.83896652892339   -3.28100965616674   -3.38384923623388
C         2.62885936629056   -5.67959538485472   -2.03978767290598
H         2.86706390729438   -6.69571238063419   -1.74717412912633
H         3.17662667012592   -4.99933969149099   -1.39356348778464
H         2.99337389659273   -5.53663953602300   -3.05276863930479
C         0.76830713046715   -8.92386908130776    2.14451019488271
H         0.05631083212699   -8.17076958660807    1.79050316687775
H         1.49076604162498   -8.43621901857233    2.80969311167162
C         2.67986714313665   -9.42700548142733    0.79495283590011
N         3.33055578002905  -10.34737482164627   -0.00001434400977
C         4.10999903785498   -9.84757280240450   -1.11757874350773
H         4.49311592487382   -8.85496258261971   -0.90200493170819
H         3.48727940195733   -9.78312579659958   -2.01617123577334
H         4.94654508823748  -10.52144420058088   -1.30943076748131
C         2.59362367130651  -11.55277029274797   -0.31786351346212
H         2.34053538501425  -12.06770879193277    0.60841475549978
H         3.21583209638870  -12.19904620348098   -0.93319904149135
H         1.65876199534308  -11.32453178765573   -0.87441522965510
N         3.49446103361580   -8.50801319705141    1.42399183836340
C         4.87404869392599   -8.80562117704350    1.71875167419240
H         5.03726291094249   -9.87781046686092    1.65349260112567
H         5.09348065163080   -8.47223354847045    2.73763331548705
H         5.56899222182412   -8.29577033611849    1.04133306988180
C         3.16432887832580   -7.10321210528447    1.44498482143853
H         2.18491052639800   -6.94588730894847    1.00524730129720
H         3.89598350960681   -6.53860823780834    0.85555424440998
H         3.17626005559714   -6.71190910880856    2.46722088429620
H        -0.70052862418112   -9.42929527771534    3.61603263854613

