72
CSD_code = OBIPEU | q = 0 | S = 0 | Stoichiometry = C25H39N4PRuS2 | MND = 6
Ru       -5.61964250133743   -3.64292514826075  -12.16033487527667
S        -3.73748119001198   -2.73893024903869  -13.39819137341716
S        -7.62041926891240   -4.75299567505834  -11.31438736704526
P        -4.61548577881614   -3.83763178231469  -10.00334320814198
N        -6.68200546447082   -3.35877915371304  -14.09202642603671
N        -5.20713478071935   -5.67819426894195  -13.00168738734202
N        -6.04310098156370   -1.98984119766224  -11.74379278113168
N        -6.32274447381945   -0.91461433460264  -11.61198708824240
C        -4.57020085737460   -2.30744767994987  -14.85930041345550
C        -3.84488900123886   -1.62789250734391  -15.84230526173693
C        -4.43057143476101   -1.28104603372869  -17.03744132495196
C        -5.75483053160549   -1.61664450922828  -17.27898746321791
C        -6.47865208602459   -2.29174022172250  -16.31459484390083
C        -5.90754905403643   -2.63658425703428  -15.09573840684591
C        -6.89337653413943   -4.73931386491371  -14.55409130146730
C        -7.98145746822848   -2.69548422956366  -13.89986320094068
C        -7.17167575680022   -6.39473133458244  -11.67014595815097
C        -7.98935302263189   -7.41135534734485  -11.16867550157659
C        -7.69416196510154   -8.73508350980237  -11.39846823714815
C        -6.57414039262651   -9.06902249447625  -12.14451304820283
C        -5.76668873241408   -8.07048450275028  -12.65712028763692
C        -6.04045177615445   -6.72838505464260  -12.42369051225237
C        -5.59365539171108   -5.52012365334032  -14.42119340868940
C        -3.78821646760982   -6.06222404668611  -12.97360262966514
C        -4.55711153398540   -5.54295087123277   -9.19571170917750
C        -5.89162182470818   -5.91167587376395   -8.54791162978430
C        -3.42771429261005   -5.80268409629128   -8.19917759278889
C        -5.40145502799934   -2.64494182359352   -8.78208113889654
C        -6.92543939468747   -2.72120049070469   -8.70529705983132
C        -4.82065269082418   -2.65100814107174   -7.36888777616923
C        -2.83891727650687   -3.25930927933526   -9.86479256178676
C        -1.91425262382950   -4.04992680031288  -10.78552384692983
C        -2.71687121649966   -1.77116358501823  -10.18573515751391
H        -2.81480002366790   -1.38325049346664  -15.63233825937272
H        -3.85917973932538   -0.75098176308658  -17.78451539620586
H        -6.22457966747849   -1.35454361048681  -18.21463520550953
H        -7.50640807032593   -2.54973119454679  -16.52487298738991
H        -7.67664577582117   -5.20308670474826  -13.94466535700264
H        -7.22250697990638   -4.75375268789567  -15.60296598658674
H        -7.82579748747190   -1.62670497911370  -13.75299218339271
H        -8.63959726981103   -2.84079481220730  -14.76111944193994
H        -8.47833637014402   -3.10761322794602  -13.01918535583278
H        -8.85600543956926   -7.12493256656602  -10.59251964002181
H        -8.33244978564389   -9.50833173449655  -10.99823673038293
H        -6.32988582623010  -10.10311001844967  -12.33420005572692
H        -4.91009165520149   -8.35755316283572  -13.24825571359476
H        -5.70283997225557   -6.50667351307893  -14.89523295140362
H        -4.79615855144295   -4.97656046627562  -14.94179784605919
H        -3.56139871938732   -6.84403346783659  -13.70557474880882
H        -3.52366436291135   -6.42184548495479  -11.98103788767204
H        -3.17943167467979   -5.18932877063848  -13.21202913484698
H        -4.41631635565156   -6.21974770965492  -10.05036748996266
H        -5.98090390572886   -5.46301267003871   -7.56223724453710
H        -5.95885638569167   -6.99308715493218   -8.43258719027710
H        -6.72907037744143   -5.58447111805873   -9.15691129640798
H        -2.44402414732228   -5.72547863201086   -8.65227235629524
H        -3.53676067194441   -6.81723798258305   -7.81569782646731
H        -3.47741305158657   -5.12207456465672   -7.35449713261745
H        -5.16257825767601   -1.67939424818388   -9.24848970005973
H        -7.25948980084709   -3.56933029631183   -8.11634660867488
H        -7.30496807623035   -1.81381319253162   -8.23774364755236
H        -7.36785994498147   -2.79485369359161   -9.69661890361046
H        -5.24935092686705   -1.81755635809387   -6.81339688229928
H        -3.74098703039701   -2.53139339030891   -7.36151795068490
H        -5.07928267376327   -3.56421026488897   -6.84014577553181
H        -2.53115876763207   -3.43211082980982   -8.82847960786629
H        -0.87571810478383   -3.82335749370237  -10.54779007089864
H        -2.05890174472538   -5.12321929545115  -10.69087439942409
H        -2.09266502195848   -3.76095950928732  -11.81705857206238
H        -3.08640248087601   -1.14386048754620   -9.37913192978604
H        -3.26526485087188   -1.53543641598061  -11.09778484053549
H        -1.67082925797568   -1.52053001572433  -10.35217491334747

