60
CSD_code = OBIROG | q = 1 | S = 0 | Stoichiometry = C27H22N5NiO4S(1+) | MND = 6
Ni        3.45251541110462    4.55979316748069    7.50489691926340
S         2.83714181346979    4.86242683178901    4.65975940496822
O         0.33431748213044    3.22997788190057    6.82501744500831
O         2.79481551040653    6.29865921022772    4.60630180195737
O         4.12718892931153    4.25012431234643    4.47212155617031
N         2.18633070907547    4.32326289395922    6.07629953041987
C         1.00909511401993    3.70993618922680    5.91739647888400
C         0.61835347187976    3.62845221230216    4.48090380471882
C        -0.53871237067180    3.05185797097707    3.98121918855181
C        -0.72496446308862    3.04283630461047    2.60639669147333
C         0.22208560005537    3.59453950505353    1.75510849399840
C         1.38242001076812    4.17486731829872    2.25803097246326
C         1.55899349673445    4.17351077847636    3.62162158296538
N         4.58085959647450    4.65150685857537    9.10165624147038
N         4.30092546810786    2.90397733135033    7.21202327969801
C         5.57057079832042    3.74393809009246    9.03208793018214
C         6.59842651604323    3.71659969641486    9.97200711224628
C         6.59224965080331    4.63261267775113   11.00934877022594
C         5.55337550129614    5.54661044279511   11.08267328800890
C         4.57241030691410    5.51926871934563   10.10397584819612
C         5.44017240324751    2.78969627122043    7.92540373878741
C         6.38443640193999    1.80909627251512    7.63191552494645
C         6.14470478984918    0.92192022068969    6.59664960453753
C         4.95002694803523    1.02112995087423    5.90402375024727
C         4.06009622753981    2.02817861560337    6.24524434730176
N         5.11995774362685    5.85647305433225    6.65129454792264
N         2.71798526335543    6.24985454438789    7.73584273818081
C         4.55766916187182    7.04802281337108    6.40893088637184
C         5.11921341829045    7.95557182932619    5.51393964836528
C         6.27786500845164    7.60500527766899    4.84410049196789
C         6.85556651369808    6.37243007464047    5.10110703766088
C         6.23701488494314    5.53796215364913    6.01674839818418
C         3.29339169338223    7.29787743153578    7.12381037706405
C         2.69716605382303    8.55735745825442    7.17449081446961
C         1.49159011062496    8.72289411531689    7.83036202112670
C         0.91488408050444    7.62679680129585    8.45322672573258
C         1.56817053442068    6.40851199580226    8.38537008201169
O         1.87578014284567    3.44534755713589    8.98105311304700
H        -1.26462259835730    2.62869310853966    4.65785081501061
H        -1.61909932941596    2.60211971418314    2.19295400027235
H         0.05709256869129    3.57752809228267    0.68888923556209
H         2.12290523043180    4.61104681709355    1.60696804448225
H         7.38784982465506    2.98658827654270    9.90461679040755
H         7.37663964118573    4.62571608743510   11.75001003154336
H         5.49830134071718    6.26517386659687   11.88399321266934
H         3.74623712846414    6.21497395408941   10.14341480246357
H         7.29979286374017    1.74393486462655    8.19676108314156
H         6.87025616097241    0.16372104245909    6.34616018728104
H         4.70627667266330    0.33698692754483    5.10812711275486
H         3.12049597587481    2.11422256624179    5.72067333433170
H         4.64248394025711    8.89789180661940    5.30532362589747
H         6.71858606242266    8.28166177177926    4.12788027167068
H         7.75571734055845    6.05975249209320    4.59740174547683
H         6.65904368087110    4.56875194802394    6.24935755159419
H         3.17246530936920    9.39981113039135    6.70145860285198
H         1.01354056281886    9.68993434085674    7.85831231902793
H        -0.02193870094924    7.70814539668711    8.97978042349107
H         1.16405493752063    5.53062204854796    8.87402263530859
H         2.08260821477267    2.56449789811931    9.30160765545906
H         1.17232323913172    3.31964101865226    8.29167633049935

