60
CSD_code = OBIRUM | q = 1 | S = 0 | Stoichiometry = C27H22N5O4SZn(1+) | MND = 6
Zn        3.73480489529318    4.72568477608827    7.31509247811844
S         2.78771991664515    5.07422498982243    4.45380490143666
O         0.76781447397127    3.06142259722434    6.77521182860131
O         2.64009897492709    6.50039579905121    4.56145124005809
O         4.07876424982748    4.60292111644767    4.02779211962753
N         2.40858037112995    4.35762849810215    5.89241324656170
C         1.27818800996526    3.65180393597272    5.82144913523493
C         0.69716931093165    3.62841060857603    4.45209872449740
C        -0.45182529567060    2.96304032293485    4.05344672932273
C        -0.83015942335209    3.04867561905717    2.72134917966148
C        -0.07916275060589    3.78069030217534    1.81233301264164
C         1.07254792756376    4.45089309150098    2.21318796622666
C         1.43844952750585    4.35519481420380    3.53499631318802
N         4.99973040476506    4.66911561213626    9.04917440330268
N         4.88592734207414    2.97675511455765    7.02463394638760
C         5.71024507708748    3.54587727538571    9.18565450481740
C         6.54514019333809    3.34734314637044   10.28495298390009
C         6.62554358586440    4.32925485884903   11.25814397022327
C         5.87421849993423    5.48362262176441   11.10738099136888
C         5.07757885149483    5.60483081000640    9.97927749790563
C         5.57393300228224    2.56281801212872    8.09550396952201
C         6.13204742417030    1.28669289315815    8.14441624299633
C         5.99120184610883    0.44586880399897    7.05184051833727
C         5.31712492058176    0.90802242188657    5.93334962059002
C         4.77564452899450    2.18516425642199    5.96932995259275
N         5.01738319540557    6.05882506109449    6.38192547570891
N         2.82104172222381    6.52590336854680    7.77246514983906
C         4.50341211948234    7.28752354059777    6.26572521367612
C         5.11641197051475    8.25311134038789    5.47003797597885
C         6.25358770818743    7.91909685662582    4.75657111946008
C         6.76549735460855    6.63689648337289    4.87337781909152
C         6.11115037945175    5.74552463630010    5.70477277349030
C         3.25215343648122    7.53165339180810    7.00351055618338
C         2.52648438005593    8.71701890751876    6.89872219905116
C         1.33526911425711    8.84574820871829    7.59147767971110
C         0.90289943357745    7.79504273056396    8.38562295090146
C         1.68365817336854    6.65315206815567    8.44194803623581
O         2.38811649025977    3.61645319152619    8.71042054004873
H        -1.02446752346327    2.39937848587772    4.77326118988197
H        -1.72126175382436    2.54006051185185    2.38667459740333
H        -0.39150896605442    3.83404355586411    0.78082280742603
H         1.66227726874689    5.02529937566648    1.51699530882426
H         7.13304876017907    2.45025876050362   10.38350503988740
H         7.26473693588563    4.19368905222525   12.11695605240152
H         5.90544542379042    6.27072942145741   11.84281669639783
H         4.47475895594388    6.48541936907813    9.81364469430408
H         6.66078123230701    0.94264348610731    9.01757245438007
H         6.41068184130217   -0.54828409654177    7.07359735003723
H         5.20693903808742    0.29521553479828    5.05382396470112
H         4.25926187972899    2.60490179865457    5.11784977244319
H         4.70807811164211    9.24592808885015    5.38896950151042
H         6.72890177653838    8.64750281795794    4.11729299957609
H         7.64333201705130    6.33164440725563    4.32787407011232
H         6.47514194135961    4.73669874289522    5.83168980574399
H         2.86667968161840    9.52107258254576    6.26943816868123
H         0.75335625593012    9.75113821380237    7.50938775484386
H        -0.01921036056499    7.85440884098221    8.94065897711980
H         1.39883960873828    5.80258233204044    9.04398495484264
H         2.59122778435132    2.80469012454283    9.18120321696266
H         1.64796874804931    3.37397651061400    8.07541765603887

