91
CSD_code = OBITAX | q = 0 | S = 0 | Stoichiometry = C36H40CdN6O8 | MND = 6
Cd        0.00021131064913   -0.00002214201511    0.00026130328836
O        -0.02482960905211   -0.63705507067698   -3.08483056848484
O         1.42588330984013    0.14080233269264   -1.59050778501218
O        -1.77664413956238    5.67220892054291    1.89706121878288
O         1.65056803235786   -0.70220831345965    1.50073549104045
H         1.57242863618019   -1.61675990244947    1.79524122356250
H         1.17885498045895   -0.16399129119487    2.19568021845769
N         0.42317293409465    2.15015321155257    0.49357922603454
N        -1.33681747881859    4.64242842821561    3.86244251567554
N         6.29940269810707   -1.49592809565209   -7.03157390910095
C         1.12855023317439   -0.34301385599978   -2.71050096028097
C         2.27020746674923   -0.58194629477393   -3.66483509678111
C         3.55350050579217   -0.78902033283408   -3.16923015841143
H         3.70982115302106   -0.76351404137542   -2.10117900384012
C         4.60308350091862   -1.02267556693136   -4.03360907839034
H         5.60183506623396   -1.19444569950421   -3.66016669626410
C         4.37125488681158   -1.03753632704322   -5.41071261571157
C         3.08629195877483   -0.81851566025670   -5.91234915107731
H         2.92197510361266   -0.82668514097541   -6.98032438303917
C         2.04229157945079   -0.59828491747040   -5.03691105821085
H         1.03906113313722   -0.43357267831269   -5.40061684434843
C         5.43932881534846   -1.28556281258175   -6.30350327277734
C        -0.45293436217322    2.90995921213042    1.13757690776909
H        -1.49438183203637    2.61873554610689    1.06719251848097
C        -0.08602377914992    4.02373811690634    1.88370265365711
C         1.25409551900022    4.39234525328706    1.89534371537735
H         1.57125542183234    5.27981244151134    2.42327756462930
C         2.16534938128407    3.60718419211657    1.20946464873791
H         3.21445766301647    3.85771786370743    1.20080907122515
C         1.70960473398661    2.48398570097470    0.53847046713176
H         2.38353036169132    1.82831276860881    0.00285942319022
C        -1.14624927723177    4.85829349715291    2.54789086550472
C        -0.60751462181712    3.66351477683512    4.64230538917119
H        -0.25144440781289    2.86091563049995    3.99255536664159
H        -1.30470224830605    3.22585035583448    5.36138274721176
C         0.57189514101153    4.27803563537324    5.39431797462235
H         1.04890303569810    3.51550823175985    6.00342900131219
H         0.24101593299373    5.08456990660088    6.04454445940567
H         1.30799694369596    4.67335433472900    4.70028807362232
C        -2.36632786056140    5.40844218262836    4.54327610807265
H        -2.50264727597638    6.33586535907605    3.98250765939089
H        -2.01709994901665    5.64626621824851    5.55051018412142
C        -3.68967458399226    4.65211352470021    4.60353593473442
H        -4.44086570699017    5.25968182380478    5.10017049122302
H        -3.58260699196053    3.71913780974203    5.15243833461334
H        -4.03252012245102    4.42656775138822    3.59704093248565
O         0.02483954270924    0.63686657369681    3.08483999739394
O        -1.42595375041031   -0.14085338901447    1.59053469625850
O         1.77660429006846   -5.67222683002919   -1.89709419162007
O        -1.65010915756496    0.70196981646259   -1.50076014078763
H        -1.57267670459046    1.61673588615072   -1.79478118435186
H        -1.17894004051547    0.16446626618057   -2.19661068157996
N        -0.42316643689515   -2.15006762800788   -0.49366000992118
N         1.33678620338833   -4.64241186260677   -3.86245965007303
N        -6.29958885853285    1.49630491272558    7.03123208989602
C        -1.12851513225444    0.34246979049161    2.71069802695466
C        -2.27016279150052    0.58186759313412    3.66490878525371
C        -3.55343986080961    0.78902437630369    3.16927087983051
H        -3.70977168357775    0.76340411264489    2.10122253554638
C        -4.60302684862285    1.02268740018424    4.03364826799874
H        -5.60179343110683    1.19438296454499    3.66020562461572
C        -4.37119965283853    1.03753988589976    5.41075387693762
C        -3.08624833970530    0.81848379875166    5.91239877753028
H        -2.92193623858510    0.82662450517353    6.98037222374268
C        -2.04225650264951    0.59823564766088    5.03697171582581
H        -1.03903752883918    0.43347757957933    5.40068393636222
C        -5.43920982464671    1.28546311308757    6.30364031363545
C         0.45293639109932   -2.90995954645798   -1.13757140536908
H         1.49438566270450   -2.61872618869842   -1.06722984099717
C         0.08600675614713   -4.02374539917414   -1.88368511971058
C        -1.25411858279628   -4.39233308737011   -1.89532131024550
H        -1.57129841886235   -5.27977996111249   -2.42328151287814
C        -2.16536561980121   -3.60711753805834   -1.20949272949013
H        -3.21446893743223   -3.85768150426881   -1.20077316800495
C        -1.70961372813171   -2.48386242908077   -0.53858787547899
H        -2.38350189176281   -1.82830069874502   -0.00279102808570
C         1.14621368982471   -4.85829860234821   -2.54791006648769
C         0.60747917483642   -3.66349493521560   -4.64231543061017
H         0.25143146145422   -2.86088910858126   -3.99256429332364
H         1.30465511563914   -3.22583624903041   -5.36140601438933
C        -0.57194952219647   -4.27800453265503   -5.39430786548200
H        -1.04897942473105   -3.51546618887455   -6.00338831853836
H        -0.24108657399272   -5.08452197935377   -6.04456237809939
H        -1.30802734275406   -4.67334444205681   -4.70026467609047
C         2.36629968004491   -5.40841170553939   -4.54330846848240
H         2.50261461580116   -6.33584895476330   -3.98256505147121
H         2.01708167917488   -5.64621443265496   -5.55055137678066
C         3.68964845522058   -4.65208304135037   -4.60353820053190
H         4.44083721924993   -5.25962326008146   -5.10021002989351
H         3.58257669888676   -3.71908285023263   -5.15239477956740
H         4.03250299783806   -4.42658076052272   -3.59703605690156

