62
CSD_code = OBITIC | q = 1 | S = 0 | Stoichiometry = C30H24ClN6Ru(1+) | MND = 6
Ru        1.48388868915341    2.80740377951516    2.32972962162760
Cl       -0.19044439395103    3.10308733628228    0.68334380643848
N         2.29016447222143    1.65079542910988    0.90143977718204
N         0.53325629005651    1.10625445590988    2.71768697027422
C         3.21024460376214    2.00644380344154    0.00611743682676
H         3.75080165014908    2.92384847094818    0.20373314965170
C         3.48331149485693    1.27390889447945   -1.13335654212245
H         4.23215797052885    1.61812374630377   -1.82764940254029
C         2.76532520785380    0.10886552092141   -1.36819278800593
H         2.93706852402688   -0.47850435771317   -2.25574706919949
C         1.81870323082246   -0.27922405687118   -0.43929380400483
H         1.23977538673868   -1.17303990203007   -0.60031822681092
C         1.59840947246569    0.50671907912098    0.69083766813415
C         0.63176208561586    0.18103021709102    1.73842389294146
C        -0.12368342306302   -0.99098355437666    1.77200292137398
H        -0.04005327990121   -1.71454630930356    0.97854080733251
C        -0.98950762698506   -1.21487110404585    2.82483254553242
H        -1.59017667355247   -2.10954449347641    2.86047441271945
C        -1.06909149320323   -0.26295983544387    3.83352850703856
H        -1.72793880025585   -0.39622255379011    4.67582649821791
C        -0.29398798895545    0.87605283944308    3.73567797741763
H        -0.34451962011228    1.63934184507246    4.50382774193809
N         0.60917509275849    3.91884667296055    3.73452788010627
N         2.75502235187109    2.52206784796664    3.82150813835351
C        -0.53609180660697    4.58130764934380    3.58843198154425
H        -1.06255447040699    4.41198769271919    2.65635201908121
C        -1.03798853080816    5.42803687617455    4.55986882856677
H        -1.96942172559773    5.94384205069904    4.39460063933242
C        -0.32124055157181    5.59858324584754    5.73756074501994
H        -0.67974450595687    6.25695972035312    6.51255039908790
C         0.86193320462006    4.90130887628313    5.90249789382558
H         1.43555747555468    5.01268386895805    6.80774069813414
C         1.30706583570782    4.05797950956202    4.88576002637025
C         2.50478639038280    3.22569420451995    4.95380874777526
C         3.31414811083848    3.09683252491535    6.08136120499702
H         3.09981250373456    3.66887797258583    6.96874003182461
C         4.38663115133502    2.22575714386584    6.05886206012461
H         5.02311967532319    2.11427931687717    6.92145753317188
C         4.61942528061196    1.49023310857488    4.90093149489486
H         5.43648012159019    0.79009109955491    4.84215885919171
C         3.78641207663504    1.67262414738806    3.81639643076456
H         3.94844984708182    1.12563860833510    2.89484996261698
N         2.43938294659224    4.57018546888620    1.76434140217564
N         5.59945143497267   10.51367379424399   -0.36201692884081
C         3.74672012309805    4.77932929804863    1.96358676235319
H         4.30402842307775    3.98406591880509    2.44576692591493
C         4.39943877338488    5.93258452409533    1.58192909476509
H         5.45999834261299    6.02677661604078    1.75507994118819
C         3.68855883650793    6.95263268053732    0.94591884141680
C         2.32517122613602    6.73258000231360    0.75059574199928
H         1.70839614573971    7.48321873229916    0.28282657732947
C         1.74980941724620    5.55014455496763    1.17113724798261
H         0.69634005825666    5.36413084501636    1.00143858362844
C         5.94023813565383    9.94349090129791    0.77901240469414
H         6.72194915318409   10.44127849026681    1.33670159841226
C         5.35398025317051    8.78109113314752    1.25514656604164
H         5.65509045687797    8.36454672345506    2.20406937907539
C         4.34575991280676    8.18436042514639    0.49845183262840
C         3.98528131695793    8.79392605421849   -0.70318351816101
H         3.22736717847304    8.36217852781897   -1.33811504248655
C         4.64756003745875    9.95094305062680   -1.08349099904113
H         4.40343452242149   10.45175087070785   -2.01042788781981

