20
CSD_code = OBIVEB | q = 1 | S = 0 | Stoichiometry = C4H9N6Ni(1+) | MND = 4
Ni       10.20988928229027    9.39291256388815    5.00093105101146
N         8.88118884009856   10.61838745404334    4.59581473251088
H         9.16725819058242   11.54371462743471    4.27377778374086
C         7.58024886159335   10.48081046133296    4.65900180369635
H         6.94671548372035   11.32096063477717    4.37800714782383
N         6.91152689732017    9.41059832136665    5.03510519009295
C         7.57642832087808    8.33225950013019    5.39434085830801
H         6.94007890726174    7.49848831224878    5.68780355951213
N         8.87680410906055    8.18005066250280    5.42777051308656
H         9.16008114256341    7.25002301237763    5.73911255092160
N        11.58145513325720    8.11881773647926    5.42627549581565
H        11.28962279099631    7.19553451624828    5.74975546357590
C        12.85085494906298    8.24071307021488    5.37038184708587
H        13.52973043440191    7.43283287751996    5.64297047448789
N        13.48425971552839    9.37647014907945    4.97029435706394
H        14.49603524154156    9.37117522137548    4.95967343389528
C        12.85454043550274   10.51923821709234    4.58441223459371
H        13.53606310210126   11.32092793039997    4.30035004106902
N        11.58555722257613   10.65397011129611    4.55354902132444
H        11.29686093966268   11.58121462019190    4.23847244038365

