35
CSD_code = OBIWIG | q = 1 | S = 0 | Stoichiometry = C10H14AgN6O4(1+) | MND = 2
Ag        3.99434543164235    7.87042735363818    5.96680342250968
C         3.67607436058265    6.44765584591360    1.81049613510068
C         2.85130841030830    5.53044610842275    2.46828668914530
C         2.86850399675448    5.87916422862899    3.83531717307799
C         4.03022399107826    6.56933826111232    0.38854647643902
H         4.70571814869067    7.40312630678028    0.21894724174249
H         3.12865401205913    6.69881378180447   -0.20976749527090
H         4.49078843092483    5.64560783075206    0.03905399969127
C         2.16764346803401    5.23414773981325    4.96217111950366
H         2.40560566065449    5.75016476338211    5.90150941199157
H         2.45488647065047    4.18618151008719    5.03462353578595
H         1.09148717381585    5.24857481611854    4.79533820187074
C         5.65469444260413   10.61109723765362    8.99182870087520
C         4.77319576011961    9.85468840384341    9.76965992864927
C         4.16168026671078    8.92666845651315    8.90059282627151
C         3.14875380077500    7.89936591050861    9.21006403152346
H         2.87853444935073    7.34782086264988    8.29984935988545
H         2.26043945392178    8.36322834310224    9.63651147453711
H         3.52791121302504    7.20858907293302    9.96177357880063
C         6.54959618939151   11.71777597475980    9.36139945673793
H         7.10181698565810   12.08463585651486    8.50076593412753
H         7.24571810599507   11.39234346899984   10.13405765497874
H         5.97287660080391   12.53070543272345    9.80204606544977
N         3.65261339019944    6.93862098515620    3.99518148940306
N         4.12767515032393    7.26501158301882    2.76868963188531
H         4.75168811174360    8.04927023188334    2.64301793648496
N         2.13498143774139    4.45443983242820    1.87165415473028
N         4.64253601053286    9.10799276060760    7.67638525937667
N         5.53716791165417   10.12308419645727    7.75157590256416
H         6.03390210015615   10.44212587246038    6.93205595780984
N         4.54356584002823    9.99359649516903   11.16776611656041
O         1.46759732466666    3.76657617080727    2.60956097910467
O         2.25245906213173    4.31588352043966    0.67632363781756
O         3.74074758843890    9.23927229672613   11.66748566867330
O         5.17070924876704   10.85325848820507   11.74172834223929

