111
CSD_code = OBIWAY | q = 1 | S = 0 | Stoichiometry = C46H56AuN4O4(1+) | MND = 2
Au        9.48719947824078   10.34910720562050    5.53484737945253
O         4.71834513463315   12.47093439554580    1.28092462750980
O        13.32232428043810   18.20989156226492    8.97944707806305
O         3.93358662155602    8.77274656946085    2.15039868359030
O        13.39880836770391    2.37825546408894    8.39542393414342
N         9.62150217819706   12.35527314882207    5.55389539703177
N        10.50303970397196   13.03288676241775    6.32037246426531
H        11.19332830563244   12.54591751321786    6.86697725280857
N         9.41497620344495    8.33820387761287    5.58352630819760
N        10.34222566690940    7.59623804173088    6.22476824228302
H        11.09874693602977    8.03347683815991    6.72372822696634
C        10.30596415452500   14.36755470325759    6.25799144168100
C         9.22820131941062   14.54834161629207    5.40317784925490
H         8.80342558051935   15.47545751555213    5.08325649623626
C         8.83532842552684   13.27353427491279    4.97878136015852
C         8.57326990626879    7.47370944963884    5.00371016561832
C         8.99142169341559    6.16659388849935    5.28198947529916
H         8.49501097928731    5.26978672353692    4.97929311213490
C        10.12603937108527    6.27202358971141    6.07379334837657
C         7.76328827116899   12.97200377849486    4.04470636459958
C         6.61034313241172   13.76376547255326    4.05079284002168
H         6.50184914089218   14.54084760914999    4.79162635242883
C         5.61045631992146   13.55309732390214    3.13422777161487
H         4.71992427463099   14.16078882955385    3.13063630060131
C         5.73033521976974   12.55211242193653    2.16139408292873
C         6.86764380046227   11.74503094259586    2.16614533550147
H         6.98988971723702   10.95618799702207    1.44135156007075
C         7.86654732881227   11.95896796258832    3.09652790231264
H         8.75849359928477   11.35026149381181    3.05642384087673
C         4.78715744348832   11.54130148706140    0.21377660760537
H         4.75809624871941   10.51968106613575    0.61156902954948
H         5.72114981006625   11.67890997175391   -0.34765723090595
C         3.58919163004247   11.79274373579314   -0.69480603323062
H         3.63111490562007   12.82266996761184   -1.05261853609801
H         2.67734277094702   11.68640642920742   -0.10462282077288
C         3.56384670386650   10.83228440438812   -1.88064122342833
H         4.46912302767626   10.96895907325835   -2.47639025281873
H         3.56135572854052    9.80330158607497   -1.51450902645503
C         2.33982891830146   11.06068677506959   -2.75816136263381
H         1.42667844874662   10.91869329928916   -2.18507001575566
H         2.33257497973720   10.36436763332895   -3.59274574703429
H         2.33891117460391   12.07256074912545   -3.15551160374267
C        11.11487382382274   15.33105615409738    6.97160410548109
C        12.36144393175146   14.99504920955930    7.50004172065648
H        12.76147713464521   13.99982513608040    7.36780746170100
C        13.12890667872487   15.92332274020327    8.17381346889015
H        14.09043013071589   15.62563953278390    8.56024291652095
C        12.66431397139672   17.22865248182610    8.34366918883395
C        11.41195260288537   17.57027616369836    7.81447022275308
H        11.06205343480243   18.58056282407062    7.95171939586217
C        10.65656253204217   16.64332917657255    7.14135571681987
H         9.69225292953443   16.92528468851925    6.75036829317413
C        14.59889371758123   17.95427086431156    9.54238462017857
H        15.29662312934289   17.62934278643630    8.75881940570369
H        14.52364868814502   17.16152235009151   10.29900399365118
C        15.09358081254142   19.24604662541358   10.18231641540938
H        15.13497897079240   20.02186752357246    9.41632853766287
H        14.37167639055547   19.56146612955907   10.93714370288277
C        16.46951687603866   19.06961616922409   10.81925884861184
H        17.18231915801336   18.74449619024464   10.05801779466367
H        16.41875650650480   18.28875482923650   11.58150315015261
C        16.96020599155288   20.36528322204909   11.45256356294533
H        17.03721708544569   21.15039432426154   10.70436302932663
H        17.93942749983224   20.22197520424837   11.90178554024198
H        16.27222765739724   20.69617346458815   12.22674800999766
C         7.40432597431019    7.85208777386928    4.22602106770300
C         6.62172981590166    8.96420935243581    4.54298514691541
H         6.88849982462609    9.58896211401693    5.38262722897576
C         5.48338740875480    9.24926644265877    3.82650325803126
H         4.86862954837349   10.09899119533798    4.07680204304574
C         5.07998692002186    8.42580558092481    2.76923826569478
C         5.87056174401023    7.32791630634840    2.43183298019739
H         5.60245514198715    6.68497558393606    1.60883513087522
C         7.01033217284233    7.04819595989286    3.15785175446526
H         7.61376099719332    6.19736731770653    2.88050492457754
C         3.37156772561755    7.90361183340803    1.17935363961137
H         3.30395358409570    6.88435839750777    1.58013105627966
H         4.00499570779588    7.88469842519462    0.28060633897127
C         1.98105886410175    8.42443716157667    0.83476868004560
H         2.06293330939497    9.47121209223604    0.54071977220530
H         1.35844592327888    8.37886103262639    1.72956503737287
C         1.33731453335650    7.61722839927053   -0.28940794309303
H         1.96259415528053    7.67521857696226   -1.18338574199450
H         1.27781811599536    6.56735836567615    0.00570941366093
C        -0.05881824397260    8.13160272615589   -0.61554648194182
H        -0.70682999394192    8.05656802855508    0.25424101028172
H        -0.49866054629114    7.55149215169441   -1.42234993104779
H        -0.02004476966027    9.17338715510111   -0.92446370642431
C        10.96546311023496    5.25442817764992    6.66635487885830
C        10.88902443793898    3.93383276400748    6.22243230520898
H        10.20773076393579    3.67948125814451    5.42602620958182
C        11.68033092066198    2.94508384115513    6.76858558929487
H        11.59424771707065    1.93829643554199    6.39325780432520
C        12.58035369538773    3.25093110133621    7.79134030172926
C        12.65589733820942    4.57503199779681    8.24532438788776
H        13.34789624196229    4.79952877586260    9.04108206782618
C        11.86772254788696    5.55457283106038    7.69436401981308
H        11.93934203034368    6.55890649831720    8.08564082428209
C        13.38079371384409    1.01079536566967    8.01482604075410
H        13.65018244964796    0.91758059933799    6.95443146891669
H        12.37607198760464    0.59464902739555    8.16564980670310
C        14.39235515540458    0.27083723566763    8.88307458568165
H        14.49247035719734   -0.74770794139874    8.50480153653967
H        15.35937149361080    0.76739819898320    8.78911659001485
C        13.97473181324336    0.24189079514872   10.35192111855938
H        13.01282818629798   -0.26799888047342   10.44350515965370
H        13.84588462016860    1.26703672206339   10.70298135773080
C        15.00965700934735   -0.46860539439926   11.21407278875311
H        15.14357495825207   -1.49566366834283   10.88219766086556
H        14.69324556246673   -0.48295449216901   12.25379863145309
H        15.96999942033549    0.03816583808950   11.15469584077218

