93
CSD_code = OBIWEE | q = 0 | S = 0 | Stoichiometry = C44H38N4NiO6 | MND = 6
Ni        5.67681286646293    0.00005676298818    9.64820320649639
N         4.88172726369019    1.98241638786500   10.76450316855011
N         6.08169886381250    6.40408821094067   12.63704626839608
O         7.13909214057379    0.97204925162882    8.94660210236029
O         6.65943709302199   -0.45619256899086   11.19711787376407
O         6.33477835184463    7.53415097080398   13.40652424020663
H         6.62486660059006    8.19412727532248   12.76182427049036
C         8.68448091706985    0.66698006256353   10.71190434177220
H         9.65197418803241    0.94375509591240   11.09322285751772
C         8.27127383053429    1.15505668939438    9.46705909702349
C         9.22574731639176    1.98688425048668    8.68006745279171
C        10.59997226325879    1.77075531212400    8.70651749296025
H        11.00960385805820    0.96979917157713    9.30317826221452
C        11.44350655466476    2.55949247734141    7.94506590530593
H        12.50907380648506    2.38144569429710    7.96649976997427
C        10.92784861742483    3.57186099458757    7.15271834146702
H        11.59106333583929    4.18772161144638    6.56285546492773
C         9.55955767021095    3.78482286597956    7.11153986143996
H         9.15310641919979    4.56766395736225    6.48761847016717
C         8.71371658511120    2.99256799550208    7.86403318401631
H         7.64452828912828    3.13788279551198    7.83383855691055
C         7.83672584305423   -0.12333751535171   11.49605557735405
C         8.33661617798894   -0.60366656093971   12.81598449252790
C         7.42170539741128   -0.76279048888547   13.85385273285790
H         6.38428098119902   -0.53068318809131   13.66618581294045
C         7.83694354353671   -1.20879522813000   15.09401192584051
H         7.12058621068765   -1.32211097703724   15.89494758024960
C         9.17044199714699   -1.51695262066458   15.30880131262289
H         9.49705024820104   -1.86932573490022   16.27637234971909
C        10.08305097440029   -1.38227163831685   14.27558992135945
H        11.12062711065119   -1.63745493682867   14.43632648293192
C         9.67183080617419   -0.92713964986727   13.03570932465659
H        10.38660695381469   -0.84729929473530   12.23075710258066
C         4.78207117452521    1.89970635976013   12.08585693102804
H         4.47420767531821    0.93642677387604   12.47173673796347
C         5.03770355419941    2.95909662948573   12.93954619838607
H         4.93863425063804    2.81809211342793   14.00392939006152
C         5.41376358413113    4.18998151972653   12.40109999984525
C         5.51221644666839    4.27139844449547   11.00918852222712
H         5.79253787495223    5.20628113260418   10.55290380690855
C         5.23733191480887    3.15410902110730   10.24472168735060
H         5.29130092272783    3.18774300184606    9.16447323152049
C         5.67734342602792    5.36085763707138   13.24589239726663
C         5.45773492942757    5.26830123912801   14.72499852327975
H         6.14159092569427    4.54123031197152   15.16056106934634
H         4.43555893457927    4.95882540363404   14.93608714407704
H         5.63833132808328    6.23906171020422   15.17973906439911
N         6.47185108750347   -1.98242652858749    8.53209347998282
N         5.27167617690253   -6.40432210809998    6.66020625224635
O         4.21451802411497   -0.97194457302192   10.34977360310189
O         4.69420932957846    0.45633384063946    8.09929203617642
O         5.01857291319017   -7.53449352110344    5.89089528152716
H         4.72839656889373   -8.19434511856758    6.53568331095288
C         2.66914804578215   -0.66682120443537    8.58446050825183
H         1.70165421475166   -0.94357682739992    8.20312899189161
C         3.08234388048424   -1.15493557739086    9.82929486321733
C         2.12786092241188   -1.98678907750937   10.61624790028956
C         0.75363973526684   -1.77063530016097   10.58981672114117
H         0.34401895826486   -0.96964145693438    9.99319898198423
C        -0.08990262558276   -2.55939397322237   11.35123722405101
H        -1.15546670798184   -2.38132628598827   11.32982165064284
C         0.42574382329821   -3.57180878872945   12.14353311079342
H        -0.23747736885513   -4.18768783568046   12.73336940433925
C         1.79403105747166   -3.78479848776740   12.18468910379316
H         2.20047320444159   -4.56767989575876   12.80856574163252
C         2.63988041299467   -2.99252232091153   11.43222764145575
H         3.70906603399238   -3.13785925869919   11.46240408562808
C         3.51691621782253    0.12350920965986    7.80033654852991
C         3.01704403741273    0.60389488723886    6.48042149339581
C         3.93196830458594    0.76306021931451    5.44257106596551
H         4.96938874965219    0.53093450610791    5.63023768427931
C         3.51674956027280    1.20913072353459    4.20242889903277
H         4.23311671431501    1.32247452014805    3.40150588104735
C         2.18325674757602    1.51731290540134    3.98763954069730
H         1.85666272538046    1.86973454244986    3.02008125698701
C         1.27063399430082    1.38258769041842    5.02083307602233
H         0.23306227122897    1.63778954625284    4.86009715620793
C         1.68183477982856    0.92739012426827    6.26069612371038
H         0.96704893968234    0.84751965681721    7.06563672025567
C         6.57137628303976   -1.89988221685764    7.21072012638766
H         6.87916256554531   -0.93663963359087    6.82468745942145
C         6.31570679224811   -2.95939263961016    6.35719144863578
H         6.41465921544282   -2.81851849866305    5.29278048827432
C         5.93975218316048   -4.19022384154771    6.89583273307521
C         5.84143300667534   -4.27146572657715    8.28776344852315
H         5.56119560736745   -5.20630249093835    8.74419376801689
C         6.11634136905458   -3.15406606475983    9.05206038590791
H         6.06248240372730   -3.18756371098390   10.13231829465621
C         5.67614266177803   -5.36121918941181    6.05121582835317
C         5.89584706095316   -5.26891529285688    4.57210872352349
H         5.21193979950468   -4.54199971507870    4.13636610730760
H         6.91800221089875   -4.95936659411930    4.36103155015664
H         5.71537809415040   -6.23977734651943    4.11753479046900

