87
CSD_code = OBIWOO | q = 0 | S = 0 | Stoichiometry = C42H34N4NiO6 | MND = 6
Ni        5.60160147815057    4.60625223504301   -0.00066993800076
N         3.20431095046159    4.18497774039948   -0.36189271620077
N         3.30705442873356    0.77131096691010   -2.69520297772600
O         5.47744426997059    5.52666039934093   -1.63066173495260
O         6.07070665233579    3.00840705408114   -0.89245542124232
O         3.33254496438364   -0.34321734996624   -3.51381344616454
H         3.96398590212210   -0.94050753544175   -3.08236682004778
C         5.77610151778133    3.71819842057774   -3.12580888846503
H         5.76971541066059    3.41734277532302   -4.15806036357889
C         5.47104142311960    5.04312328687936   -2.79559736197305
C         5.11019336495516    5.98900114238092   -3.88745497353842
C         4.44690505258226    5.57882164833351   -5.03987619013733
H         4.17966917686184    4.54087215802136   -5.16991413798917
C         4.10285836938144    6.50271167245968   -6.01013250650406
H         3.58427607292772    6.17772888890048   -6.90066960228215
C         4.41774275258274    7.84140816938391   -5.84420413614582
H         4.15139733070431    8.55786438448413   -6.60752514084370
C         5.06774102050658    8.25866295298509   -4.69411429955235
H         5.30868058442819    9.30298609234533   -4.55858995258821
C         5.40442106506773    7.33975989122710   -3.71887057172800
H         5.90271357381488    7.64705747679791   -2.81217654245540
C         6.07974562554198    2.78021913568463   -2.13280068529541
C         6.36875116484228    1.37767520156126   -2.54043587968895
C         6.90882769322808    1.04094989440355   -3.77763551533725
H         7.19362582880781    1.81385366441797   -4.47492666093575
C         7.10806828401025   -0.28639909634979   -4.11360307446763
H         7.52872649328141   -0.53861495607777   -5.07599230023897
C         6.77006233672432   -1.29216644768345   -3.22336886654065
H         6.91813319877447   -2.32740264774882   -3.49483105449858
C         6.25139747865704   -0.96397337512150   -1.97958333389382
H         6.00097905317685   -1.74508114170901   -1.27532178936551
C         6.06156073506245    0.36156574043325   -1.63718435688679
H         5.66544829120670    0.63506568741916   -0.67182819671780
C         3.12464293131547    3.06097100975978   -1.05807523396587
H         3.52855188019646    2.17049882191728   -0.59681389688893
C         2.57008227445617    2.98095327055879   -2.33984852008577
C         2.00429624430694    4.13883216633769   -2.87287926772320
H         1.56147990734820    4.12695206884921   -3.85921415678827
C         2.02899909809360    5.30000067817125   -2.12092668683316
H         1.59277824387506    6.21164344199733   -2.49906106438036
C         2.65072454921125    5.28075136202006   -0.88210792726340
H         2.72199107445975    6.17596368262530   -0.27926749769280
C         2.62398514788017    1.75485490657822   -3.11165572103935
H         2.09040553976838    1.73061683112797   -4.06405482484278
N         7.99791092494715    5.02993036346765    0.36302874502667
N         7.88316371215501    8.43691252879600    2.70467623888716
O         5.72691020500071    3.68603093656301    1.62920047022441
O         5.13058225004750    6.20350647968073    0.89095924345341
O         7.85414844441834    9.54997403781191    3.52512591039566
H         7.21831573380335   10.14455769565725    3.09636468354823
C         5.42275621660256    5.49324731597004    3.12456636688230
H         5.42699829778070    5.79402127766345    4.15685329372965
C         5.73234833492193    4.16940020433310    2.79424678394295
C         6.09778615595943    3.22451922612872    3.88542530384489
C         6.75740963309965    3.63723675964409    5.03905482583799
H         7.01772546291842    4.67669290172099    5.17102830349635
C         7.10690790075995    2.71408573929215    6.00806289343765
H         7.62257656067903    3.04111386614178    6.89954579413578
C         6.80134760110803    1.37354592851820    5.83964934990296
H         7.07197693357022    0.65764993414290    6.60199191096370
C         6.15503035503095    0.95381250191832    4.68838866825207
H         5.92127554406544   -0.09189402612290    4.55094213398016
C         5.81276941052897    1.87205414672975    3.71449170388236
H         5.31730973586607    1.56290940017482    2.80687400631129
C         5.11802765091793    6.43072540325425    2.13142259809791
C         4.82391969348550    7.83209980763640    2.53935259791831
C         4.27783329584826    8.16592522911886    3.77468934741801
H         3.99210791892010    7.39136230355890    4.46975570294745
C         4.07344127014310    9.49236389277664    4.11121905176629
H         3.64783842948118    9.74238039590084    5.07200264104565
C         4.41251204331525   10.50002958559223    3.22352211746940
H         4.26048862857075   11.53456127236777    3.49545963494177
C         4.93732455666594   10.17464320137935    1.98156238871426
H         5.18870784581635   10.95722251278755    1.27929613364017
C         5.13202277699321    8.84998615473207    1.63842236945835
H         5.53282819946964    8.57862438346529    0.67440699664640
C         8.07562732108220    6.15293383793449    1.06107212809784
H         7.67006764851029    7.04343864211989    0.60131990168638
C         8.62996543842796    6.23182682666267    2.34301369431618
C         9.19841728035207    5.07426125636990    2.87387225540597
H         9.64148674967768    5.08538146212462    3.86011052456685
C         9.17579918281609    3.91431710564493    2.11995961556258
H         9.61389999839593    3.00291033536712    2.49650705165176
C         8.55346982678692    3.93431033849987    0.88143633127518
H         8.48337986072164    3.03984125961735    0.27734342156731
C         8.57277442641191    7.45628434832389    3.11724947777552
H         9.10924210813903    7.48151085671328    4.06800162137966

