93
CSD_code = OBIXAY | q = 0 | S = 0 | Stoichiometry = C48H38N4NiO2 | MND = 4
Ni       15.14672904252074    7.05075294325076    9.80995615388072
N        15.67969065723608    8.23791826826493   11.17300532159392
C        16.83368656749743    8.93542241130620   11.19224903332570
C        16.71953780114999   10.02728071980967   12.09304801132441
C        15.47435899521533    9.95019641748366   12.65682375633322
C        14.83994420944251    8.80937968804031   12.09211409247873
C        13.63350551547204    8.20659402052926   12.47884490778419
C        12.85145763331689    8.82262189488999   13.56388075041677
C        11.52962194882791    9.20004372024658   13.34194385044461
C        10.79224373871117    9.79024496174151   14.35160596107541
C        11.35983884709031    9.99900946794635   15.59764109716812
C        12.67048270643030    9.61600552346830   15.82932246328801
C        13.41493496472710    9.03543989632644   14.81891278966518
C        13.16725892270956    7.01564089031648   11.92351029593083
N        13.70828302399769    6.37856312908926   10.81421341672980
C        12.96647997585819    5.29393577209741   10.57622855467962
C        11.95622607109288    5.16748142664312   11.56141899098236
C        12.07221254280972    6.24237272126598   12.39764056254056
C        13.07599944045026    4.34031630463159    9.41513495291660
C        11.75369099925670    4.43011006315226    8.61070274309896
C        11.56952876473667    5.79848003683232    7.95638287021335
C        10.18769443354970    5.93474649316892    7.32207075376339
C        10.00984681776886    7.28875403366165    6.64667893931760
C        13.32719285994153    2.95545434457143   10.00134509326861
C        14.59342332532319    2.69275589214004   10.51302701666408
C        14.88781198639418    1.46489482675996   11.07422582202878
C        13.91723989159812    0.47968111810719   11.14047932737081
C        12.65411204248214    0.73495638470684   10.63840530054218
C        12.35835102316310    1.96485445270131   10.07326316542356
C        14.18459111025659    4.68707229723523    8.46733050947894
N        14.82146189311971    5.84725291713387    8.51108745594529
C        15.66677361869448    5.93388012149093    7.41652930838065
C        15.54752143586738    4.73699824638273    6.68390984480065
C        14.61821624984862    3.95878195888758    7.34316614914927
C        16.37347009787820    7.15645972557761    7.39250234385652
O        16.21865844943856    7.91713388039728    8.39516345331085
C        17.25833558011634    7.59911686678965    6.30388187465070
C        17.16549689583788    7.09326988911163    5.00914225120402
C        18.02753895160058    7.54256434058084    4.02620719561755
C        18.98610422422875    8.49990276190315    4.31822567460765
C        19.06847587401898    9.02594399144049    5.59768151406477
C        18.20649864033868    8.58480506357340    6.58160430459622
C        18.02642372410945    8.55251389150078   10.48156522058287
C        18.98152504393497    9.61360478020210   10.14440572134314
C        18.51551902637024   10.81228255451101    9.60374170186686
C        19.40124821089340   11.81371868553313    9.25504599840057
C        20.76191753893618   11.64014085312553    9.45180076283878
C        21.23262798345307   10.45888943192076   10.00146148371537
C        20.35116605750036    9.45067442498013   10.34513547948257
C        18.27050057928220    7.25603028615627   10.11280442671758
C        19.27049133542360    6.75831333846932    9.20506394351044
C        19.09939026807433    5.43016390359044    9.04349132645931
C        18.00167032442103    4.98963505652176    9.90224224378521
N        17.48820578580204    6.15310223452131   10.46432311229250
O        17.58477545643019    3.87360537306502   10.13526124658845
H        17.49234473141673   10.74213954271849   12.30068522740373
H        15.04391772322083   10.60830260632272   13.38591178082244
H        11.09207448948287    9.04192532360012   12.36731449782929
H         9.77038463923770   10.08681784978034   14.16619072550858
H        10.78174344737740   10.45654071740907   16.38658207700349
H        13.11494996625011    9.76977954371895   16.80165598786506
H        14.43205199721681    8.72254372150906   15.00360690215249
H        11.25287110696664    4.36082483772672   11.62932808028802
H        11.47837202841453    6.47198303203523   13.26058012207624
H        10.91013444815210    4.24846342707285    9.27770100853700
H        11.76126759100396    3.65666358532917    7.84031714980450
H        12.33092907082990    5.94645143394758    7.18811099823349
H        11.70160057874422    6.58273934239234    8.70651117932546
H         9.42150061208925    5.81024246352535    8.09131239040004
H        10.04887848185575    5.14033883337305    6.58478970705498
H         9.02059193590721    7.37022186110139    6.20203492360972
H        10.12980128551819    8.09267803176719    7.36960462930919
H        10.75161609296486    7.42306810581148    5.86246070400612
H        15.36527768585112    3.44519667366444   10.45461257532231
H        15.88191140764856    1.28308799413215   11.45303929894622
H        14.14322518588036   -0.48182041758693   11.57800808950063
H        11.88916000698026   -0.02724291178550   10.68275274330522
H        11.36490237417434    2.13107980551004    9.68663988872706
H        16.09950387530272    4.46316384097658    5.80618306165038
H        14.28088942459935    2.97815148358390    7.06839898782123
H        16.40253119723539    6.37146494710358    4.76773700139755
H        17.94939711958082    7.14794217403731    3.02372178164765
H        19.65937629916263    8.84300071119472    3.54651046880008
H        19.80303522480716    9.78392889610046    5.82812057502209
H        18.25181139925316    8.99569790235291    7.57815034447622
H        17.45555227040096   10.93735792310162    9.43903491471641
H        19.02982000082859   12.73346944259354    8.82752271065976
H        21.45308354683002   12.42490848995224    9.18218263558083
H        22.29170543028601   10.32422054569235   10.16633840961092
H        20.71790612309071    8.53878545655310   10.79349422479645
H        19.98607610902482    7.38177324100365    8.70278553461999
H        19.65788224555768    4.76301486951216    8.41644957592661
H        16.92823374221222    6.12472997539591   11.31116854474209

