41
CSD_code = OBIXUU | q = 0 | S = 0 | Stoichiometry = C12H20FeN2O2P2S2 | MND = 6
Fe        4.44377576389871    9.20306039001836    9.92884500084436
S         4.60312994425208    6.94437781717335    9.44520908166541
P         4.85010120283795    8.57950540843159   12.00749972991346
S         6.73811446382563    9.46768113644037    9.77624541494641
P         4.48538607644683    9.49702710609700    7.74083870605812
O         1.56810359982845    9.00247124236633   10.13512641809265
C         2.70771482598600    9.04534661125629   10.04623874651986
C         7.23745124653311    7.84361265027509    9.38681976775124
O         4.06939990095363   11.99879766681777   10.55661569348001
C         6.32499992670075    6.76599407027752    9.24475432824982
N         6.76118540037016    5.55814264754416    8.94682085180638
C         4.25928751867135   10.89883094234075   10.30571259631590
C         8.95572159130639    6.42452121985586    8.92348669711231
H        10.02340830638940    6.31389949321931    8.79888334063581
C         8.06917335018642    5.37740463602561    8.78454831172185
H         8.37892402501744    4.37113071702821    8.54119922013850
C         6.18197305968887    7.40130336172100   12.42355720658907
H         6.17861221051976    7.26035544842163   13.50587051098199
H         7.14585749582591    7.80209227179142   12.10945481187644
H         6.00299109365631    6.44633167302868   11.92926491479854
N         8.53084410496263    7.64905472239299    9.22376101609552
C         2.89670876863908    9.14474184581294    6.91315194859343
H         2.97893642250170    9.32355716180993    5.84067408413426
H         2.12094529724253    9.78188760586109    7.33657415834609
H         2.63810191253840    8.10118924389323    7.09605032938949
C         4.83821603580280   11.21225066110795    7.22719401877362
H         4.84062106617922   11.28694184562707    6.13934135717855
H         5.81501398310906   11.49531460983123    7.62100742666407
H         4.08138889650014   11.87701143604355    7.64206438252221
C         3.43030530265874    7.78898810619099   12.83850756902424
H         3.69433032590030    7.51459965555078   13.86026312870448
H         3.15489903908613    6.89728862202732   12.27424509101958
H         2.58704863555861    8.47880162727836   12.84645464645711
C         5.63580364467130    8.57832117334377    6.66018930663922
H         5.45323763336250    8.89385668028302    5.63140928286180
H         5.45820402095962    7.50670111394502    6.75221584775736
H         6.66639987672109    8.80420440348682    6.93440735348087
C         5.26087207006900    9.95912109672773   13.12989971691360
H         5.44183551485733    9.58585507481461   14.13830482842363
H         4.43764407873227   10.67258673860019   13.14146083303463
H         6.15563236704694   10.45484006523711   12.75173232450030

