51
CSD_code = OBOBEN | q = 0 | S = 0 | Stoichiometry = C23H22FeO3P2 | MND = 7
Fe        2.22471623824472    4.48762564274047    3.31518860704498
P         4.00643354624371    3.93142553814035    4.77388402510687
P         4.25441340763784    5.09286067331221    2.34542790774006
C         1.51337613303403    3.57641660415254    1.96990719483956
O         1.02957965823029    2.98813074822596    1.11415232470374
C         1.34098470593670    6.01683181370979    3.15184803676939
O         0.75224095857007    6.99499468523880    3.05591717149942
C         1.21045769024912    3.79954292682722    4.58303472864399
O         0.51636833535502    3.36302752860608    5.38480039435327
C         4.05695892431254    5.59236246797300    4.07565900096222
C         4.21408552282409    3.42647079164079    3.05621038763646
C         4.41584903885428    2.12001665000243    2.45786097212989
C         4.31030880788539    0.94490652116105    3.23112818017220
C         4.54041229721368   -0.29043287858027    2.64887610985577
H         4.45524254035788   -1.17874308455509    3.25926519099777
C         4.87343639865693   -0.42117750250177    1.31033842127368
C         4.95664569626650    0.73484226762215    0.54892963313750
H         5.20138119570566    0.65449751063957   -0.50104747885733
C         4.73209230547131    1.98922032642006    1.08856012986042
C         4.82622059827512    3.17416515232637    0.18319681507601
H         5.62087840994344    3.85187783431050    0.50493931543969
H         3.88533023882804    3.73265910576455    0.17501482683649
H         5.04098554142554    2.85760663739759   -0.83494499333196
C         3.93601594948807    0.98711427536687    4.67640180520784
H         2.98932326036558    1.51825350305972    4.81704658676341
H         4.70379596134172    1.49699893937387    5.26479424410774
H         3.82301067462380   -0.02057166082942    5.06994153786879
C         5.10312421669612   -1.76592761188197    0.69448859671729
H         5.86606722582252   -1.71180975746457   -0.07904794109896
H         4.18244887486556   -2.12506081850744    0.23300859200616
H         5.40966800895097   -2.49033258564773    1.44526874050773
C         4.06524550854311    6.89928054149946    4.70593519280917
C         3.84789601636235    7.03609236196785    6.09237245356090
C         3.89276683669541    8.28974967350234    6.68077152609008
H         3.72318860437544    8.37141474766849    7.74540474936729
C         4.14437396749030    9.43633303648699    5.94658254579700
C         4.33778019415185    9.29981447376500    4.57921213951438
H         4.52085699090653   10.18504218724940    3.98615796708529
C         4.29812502501428    8.06879448184494    3.94980848750833
C         4.49581736751409    8.02509865198247    2.46924885305347
H         3.62984961312286    7.57437894514139    1.97510068224324
H         5.37955486855654    7.43792520983150    2.20778229974530
H         4.62612186985918    9.03012635844903    2.07429369626033
C         3.54615447560962    5.85837651668069    6.95966181534510
H         4.39880715814816    5.17510640595057    7.00223716142506
H         2.68337700983236    5.30460327131763    6.57583152533744
H         3.32074553682919    6.18006025001254    7.97389376782790
C         4.19076226536969   10.78706422968624    6.58983391247627
H         4.11196059851895   10.70758434673938    7.67102440505817
H         3.36951536331738   11.40476556033912    6.22689522247067
H         5.12194836810705   11.29459650583562    6.34210253305513

