63
CSD_code = OBOBIT | q = 1 | S = 0 | Stoichiometry = C28H25N6NiO3(1+) | MND = 6
Ni        6.27125193020492    3.46404625235405    2.64948156556234
N         8.10827752919397    2.24310537301568    2.81258335012795
N         5.85954011489410    2.46936058689974    1.10902038932022
N         8.12038492766573    2.09595226581155    0.47562384113236
N         5.14154408489917    2.30567943598785    3.88474633085367
N         4.40526134498287    4.74811861950577    2.67619188937174
N         4.00334427752943    4.11910004596357    4.89989928191569
O         6.73625210768820    4.41199891941570    4.14482214760960
O         7.21145049913771    4.74732605217677    1.49599623079458
O         6.39671826593071    5.50957845606391    6.46524899388639
C         7.65714486503182    6.39289440722493    3.15787360875377
C         7.10628647774259    5.62755439583747    4.22986051179996
C         6.98996046469300    6.28285082252569    5.50873290532324
C         7.44229741979516    7.56377141482540    5.68022542619514
C         8.01881127104975    8.27810021511352    4.61507211024206
C         8.12490391079951    7.70891766482177    3.38324121670908
C         7.71772577665783    5.81626733108637    1.86915842199252
C         6.33841760334014    6.01206216715751    7.78060566981384
C         8.78700983445394    2.23706634825255    3.96163507723704
C        10.16463640060478    2.18998719718586    4.03065209422227
C        10.88638415041391    2.13841356586522    2.84295884369836
C        10.19998660767704    2.11906936149794    1.64791150262150
C         8.80079400105682    2.16925449337625    1.67525369078131
C         6.77848592423229    2.12028672119921    0.19739724197821
C         6.40094331221719    1.74920707199192   -1.10696947861534
C         5.07229269195828    1.70235039941667   -1.45067226155586
C         4.12591756658281    2.01423293378861   -0.47831125441985
C         4.56735114091451    2.39304118716139    0.76967875528636
C         5.51201519092098    1.02121763435412    3.96826617110415
C         5.30366916026346    0.23159035245396    5.07569123415117
C         4.68478514921716    0.80028967573590    6.18715536881215
C         4.27781552580693    2.10877909408639    6.11138928570119
C         4.50040496559221    2.84381779114622    4.93116211761794
C         4.04848982734548    5.08582113036407    3.91973675585441
C         3.68077483379410    6.39298109610720    4.26811633833514
C         3.67677594234871    7.36678929734310    3.29487389777908
C         4.01205474949900    7.01132824063948    1.99216627826399
C         4.35493198661925    5.69962786454743    1.73912557162091
H         3.68558080102686    4.45964595407650    5.79765320194130
H         8.71372779627903    1.95984332593761   -0.33194727461116
H         5.90032574085538    5.21727334667628    8.38220970871562
H         7.33481722746368    6.24597098966134    8.16542005151845
H         5.70820601895840    6.90531120971954    7.84199035341912
H         7.35543893713581    8.05252760490622    6.63761712362859
H         8.36478824410243    9.28389144603475    4.79030098288425
H         8.54750094355697    8.25427542137428    2.55362058185341
H         8.27102100966065    6.39463174982632    1.11267964935152
H         4.60522275115617    5.37622445214304    0.73620434621700
H         3.99878637382250    7.73792875295652    1.19691726920156
H         3.40755440044603    8.38323111042391    3.53666585224439
H         3.40913898004363    6.62400694888919    5.28672873912361
H         3.78404744311571    2.58283157595079    6.94569513407130
H         4.52169429182006    0.22369060209708    7.08433138025895
H         5.61830770972364   -0.79847633512177    5.07941407498113
H         5.99659942664276    0.61056672557017    3.09289275955821
H         3.86004921252223    2.65740551180519    1.54298514362612
H         3.07128674314205    1.97261824062217   -0.69194172834938
H         4.77222795026861    1.42247092666599   -2.44815247640681
H         7.16555177166544    1.49875158597056   -1.82623412879669
H         8.18300737429018    2.27557297851795    4.85838405459708
H        10.66482984595713    2.19215299483530    4.98469731708837
H        11.96482508189905    2.10558700667818    2.85376938317618
H        10.72407209171934    2.06432999149277    0.70609737881984

