43
CSD_code = OBOCUE | q = 1 | S = 0 | Stoichiometry = C17H19ClN5Zn(1+) | MND = 5
Zn        9.44870985826651   -0.90523693727618    1.09446806057264
Cl       10.41258299454785   -2.76533127072242    1.56247926821248
N         8.27580743804749    1.01151636267965    0.50799709186345
N        10.84081121956860    0.58307013522724    1.28892488468193
N        11.56124484048439    2.60868041244568    0.86033888829316
N         7.85423953014515   -0.83456500061547    2.46199320154083
N         8.82945449140566   -1.22346600212645   -0.90654548360004
C         9.25952323693126    1.95934601798838   -0.00046791018312
H         8.92272942107914    3.00164271372812    0.10434018086831
H         9.41401503120220    1.76258281157680   -1.06702293153583
C        10.54749568601042    1.73673848046381    0.71813757797117
C        11.61975983039102    3.95583407734807    0.36016544800231
H        11.54400984490881    3.96475379938804   -0.72818732046135
H        12.56813550348454    4.40229197602741    0.64993120316162
H        10.80863657525421    4.55631650787334    0.77555396025537
C        12.54565398600610    1.96499553186767    1.55888399318727
H        13.47060801816086    2.44163266899835    1.80765735940253
C        12.08709048993235    0.70973133775215    1.81988815429421
H        12.55349777401970   -0.10132074799258    2.34018541390304
C         7.65323562686135    1.46258155037663    1.74287800982314
H         6.83316883624154    2.17050649364006    1.55587204760993
H         8.41481402804598    1.97467539758165    2.33995256266856
C         7.15957310206225    0.29703001381221    2.56071525096528
C         6.06713071214098    0.41219064006956    3.40862041867150
H         5.52161638547871    1.34114485284887    3.46748043975460
C         5.69694856014610   -0.67993404598810    4.17805981662467
H         4.85266616731899   -0.61464255137897    4.84665323445863
C         6.43035892979205   -1.85175338160041    4.07124348251225
H         6.17869340370112   -2.72305455039232    4.65295620477201
C         7.50242540477446   -1.88526256275109    3.19663443937173
H         8.11084188631040   -2.77011688929848    3.07249098483236
C         7.30698709216214    0.60846176534780   -0.49843001406347
H         6.92701717725110    1.46352260764326   -1.07499261746860
H         6.45706419018797    0.14521937941408    0.01307334758968
C         7.89456711202229   -0.42782915422557   -1.42243438949495
C         7.44896312942969   -0.57386534707717   -2.72866708513363
H         6.69009475706084    0.08615010074415   -3.11930298165762
C         7.98785278865506   -1.58179499733621   -3.51288623776667
H         7.65631027676252   -1.71715365615164   -4.53066989239251
C         8.95531938784442   -2.40956674728447   -2.96391858521875
H         9.39714831324249   -3.20824117601361   -3.53645492336381
C         9.34746096589083   -2.19301044095086   -1.65447315743994
H        10.09113599677018   -2.81157017566111   -1.17222139608369

