76
CSD_code = OBOCEO | q = 0 | S = 0 | Stoichiometry = C32H35NO5P2W | MND = 6
W         1.09333174860478   -2.02773036688814   14.16021345259578
P        -0.18338918100126   -2.93036507113040   12.18322834191599
P         0.07004645807365   -4.53763013477201   10.60385204717224
N         0.46406544128298   -2.02811377894729   10.88238608818460
O         0.00644726488889    0.88052807423356   13.80550754876183
O        -0.85337130340042   -2.87903672359710   16.45735371076356
O         2.68846165668137   -4.49345588310321   15.23254747095618
O         3.37542967726462   -1.27909169862337   12.13713368383181
O         2.69228071846335   -0.65342767435732   16.46074643137780
C         0.28251243214622   -0.22557358111523   13.83439590560340
C        -0.25510827220258   -2.55454023724565   15.53895648013798
C         2.06312203261885   -3.67330020618090   14.73253078257266
C         2.52785201475031   -1.54903060094003   12.85544043819494
C         2.10350904397751   -1.15877861116787   15.61776831151597
C         0.80188788613320   -2.93639140641091   10.02618703197505
C         1.44770393318707   -2.65170589613741    8.76351782865640
C         2.35452109600829   -1.59791015736526    8.64628480013950
H         2.59549944016963   -1.01444965818323    9.52155461478066
C         2.93753034657658   -1.32735631937661    7.42361491767324
H         3.64646336044470   -0.51786023157299    7.33430078423872
C         2.61247084945626   -2.08922428250790    6.31146724917410
H         3.06880919369888   -1.87186101342031    5.35725134736571
C         1.70147343934043   -3.12905509425650    6.42038704284398
H         1.44434237493675   -3.71634100429615    5.55135434094891
C         1.12583793897490   -3.41630946790636    7.64204938734333
H         0.40903548654535   -4.22116979761287    7.74472767382300
C        -2.02941512766674   -2.58412548904361   12.02882679122562
C        -2.61878964752328   -3.39910397474650   13.14302347908982
C        -2.98553201759260   -2.56888501265233   14.14349393701800
C        -2.71227275653099   -1.18972887767713   13.75356908326621
C        -2.18431797939407   -1.16997367758913   12.50787323413163
C        -2.58764158532326   -2.85636695302244   10.64123874843862
H        -2.62195646908118   -3.92479243078662   10.43422925458565
H        -1.98721659227964   -2.36566771748843    9.87555165622045
H        -3.60307300045887   -2.46583397609649   10.58603652429514
C        -2.77296203037195   -4.87807308269356   13.04923841951885
H        -2.65620465805755   -5.34541098590017   14.02519589233163
H        -2.03319053540955   -5.30096444823206   12.36770337215066
H        -3.76441094456372   -5.13452049312778   12.67088646198431
C        -3.67701776682115   -2.93120154708206   15.41352371820609
H        -4.74286394502577   -2.71546512022090   15.32649873800343
H        -3.28761772172230   -2.35497038011174   16.24948587309861
H        -3.56112826226179   -3.98965384420892   15.63220990738117
C        -3.04298453564285   -0.03747662480898   14.64000645377072
H        -2.79871345197191    0.90866225671679   14.16609233636584
H        -2.48544937176494   -0.10919160010541   15.57460045549047
H        -4.10526020973220   -0.04196905420120   14.88278676896667
C        -1.90182970907361   -0.01545028490595   11.60959990471553
H        -2.64864399024170    0.02406194534919   10.81413419998026
H        -0.92318377278484   -0.12507246428121   11.14380034034928
H        -1.93324780225150    0.92636465039242   12.15014345875550
C         1.52448057853080   -5.66228953278603   11.09686042552472
C         0.76170219674707   -6.59223135307352   12.00456857346053
C         0.41699839457175   -7.69652736204539   11.29824106923481
C         1.00176767639175   -7.62583718112986    9.97202764769900
C         1.69846548305652   -6.47106877473261    9.84284716288925
C         2.74191886049554   -4.94628309317912   11.63989562163020
H         3.47474909437628   -5.68201775808527   11.96946163969945
H         2.47782562458725   -4.31348654679552   12.48759575705055
H         3.20068913170857   -4.32050426577161   10.87584969728300
C         0.50516987265743   -6.28829237041995   13.43740467334395
H        -0.27781251386840   -6.92583567271520   13.84048255550591
H         0.20953512360067   -5.24514646560681   13.57654788114660
H         1.41259694130162   -6.45663946140787   14.01901422941164
C        -0.38384354758614   -8.86917745319739   11.75192104923751
H        -0.78746649684664   -8.71244520269908   12.74800324279112
H         0.23779519758521   -9.76403219865452   11.76880500147072
H        -1.20981777244720   -9.05080285069236   11.06514331992024
C         0.85668022684614   -8.71873356063926    8.96912571470529
H        -0.19671867271531   -8.91892861843025    8.77534045521794
H         1.30517242351060   -9.63718556233895    9.34666633305933
H         1.34178127433636   -8.45738540555144    8.03319399362091
C         2.59757198606168   -6.07406018424847    8.72200667335103
H         3.54675193050907   -6.60598279477867    8.81031283346482
H         2.80744890895352   -5.00850801217058    8.73958753540081
H         2.16381688337838   -6.32410830925946    7.75559019200377

