73
CSD_code = OBOGOE | q = 1 | S = 0 | Stoichiometry = C22H45MnNO2P2(1+) | MND = 5
Mn        8.59923701727974    3.25744071149809    7.71549786011974
P         9.18336596162548    5.03177793249685    6.29707602540864
P         8.75380048984606    1.50829477988099    9.26705866106640
O         6.06798233687486    4.35809229217008    8.69542893766901
O         6.93709396713582    1.86963084300439    5.74656957783639
N        10.08948873418588    4.06688449548002    8.91346097364090
H        10.87803261885786    3.54694122632587    8.49733901982785
C         7.08536209434993    3.94628466944334    8.33275367183698
C         7.60517417275924    2.39951186987653    6.52125119444071
C         7.96508166414832    6.45466985183100    6.03457391824317
C         7.72241470386832    7.08832813155176    7.40892780584840
H         6.86148265965797    7.75074635788319    7.35148973862671
H         8.57205092230248    7.68553311114843    7.73298782781893
H         7.50260142563151    6.32913554883048    8.15825891068983
C         6.65277511273356    5.85042574022012    5.52797799385105
H         5.85743489431122    6.58872037475172    5.60073746131157
H         6.36986006013329    4.98218901769384    6.12680763792200
H         6.72369250439512    5.54272962630489    4.48981672728705
C         8.44862664844337    7.54451541799816    5.08147163331547
H         8.49644509857131    7.19669534947714    4.05403246337516
H         9.42009836446027    7.93924711593892    5.37380586819175
H         7.73822576475285    8.36899847574735    5.11160203758836
C        10.02593783513549    4.55465445233917    4.66706638931673
C         8.95709970646603    4.26769732411520    3.61232938885085
H         8.53368771610362    5.18399440603832    3.21224659167153
H         8.15538074874045    3.65700002187157    4.02749012326401
H         9.40200857742343    3.72228417438458    2.78156297823109
C        11.03539437958052    5.57262542473201    4.13779144877293
H        11.88189806102313    5.70515713349041    4.80768751315870
H        10.58636772719212    6.54185883910522    3.95418756541388
H        11.42638398687717    5.20604232812974    3.18961386682620
C        10.75287052874986    3.23883523219009    4.96802362577465
H        11.30194424785707    2.90530497052889    4.08921699907211
H        10.02397120798039    2.46211580027553    5.21357047623845
H        11.47758063391038    3.34296021673008    5.77857929095736
C        10.58167654629902    5.80002495093665    7.25421598194247
H        11.51963039116880    5.35525356083073    6.90726550400533
H        10.63634505699991    6.87478706027965    7.07760285671754
C        10.40250320370685    5.49187660326672    8.73735053501841
H        11.31994836232537    5.75660391787142    9.28512487369513
H         9.58017209481288    6.07221736643087    9.16293709638685
C        10.05779308533666    3.69340120624314   10.33562928793057
H         9.17141743174615    4.14856930785311   10.78649021828135
H        10.94277132147730    4.08647673090332   10.85848742726069
C        10.01516915405047    2.17422759011079   10.46374173612547
H         9.78599089073884    1.87256248918811   11.48579965748419
H        10.99616297936349    1.76519284066246   10.20554431971780
C         9.62732499231341   -0.03108805807365    8.59036208428898
C         8.62846763411606   -0.83099647024078    7.75452132665093
H         8.07450230935305   -0.17999156372891    7.07786430578213
H         7.92125917438731   -1.36133377100276    8.38581257636385
H         9.15629960433341   -1.57340799085195    7.15810261063762
C        10.70194455246441    0.53572216357357    7.65273358001953
H        11.13480228354648   -0.26065262393489    7.04977725912147
H        11.52025555722213    1.00510227379173    8.20057376300199
H        10.25388208971550    1.25986376402949    6.96276831190719
C        10.29446816956202   -0.93840876957461    9.62232525442514
H         9.56912465922944   -1.50939322702984   10.19040881204833
H        10.92418740113874   -0.39146297875104   10.32042760034587
H        10.92943520494215   -1.64978691017904    9.09536876162347
C         7.27835147625775    1.05536993513387   10.35312796083870
C         6.08145602971379    0.83717565556456    9.42494540743446
H         5.17753209355979    0.71058652478157   10.01639989755756
H         6.20350348846674   -0.04869718469089    8.80920785251920
H         5.94443738427291    1.69602775754330    8.76542806744795
C         7.50310467166042   -0.17176360317715   11.23189735386575
H         6.68924687510976   -0.23996732733278   11.95156906887259
H         8.43457199208523   -0.10568538131662   11.79105243203960
H         7.49887038408246   -1.08836648407041   10.64945888976604
C         6.99652916445477    2.26536695277051   11.25057302730311
H         6.99445037452447    3.18930337470054   10.67444394319625
H         7.71716660521372    2.34813225190659   12.06099978485125
H         6.01169273705554    2.15633480216391   11.69906836995512

