59
CSD_code = OBOJEX | q = 0 | S = 0 | Stoichiometry = C26H22N8NiO2 | MND = 6
Ni        3.99722435491610    8.40331218879657   17.48061117716116
O         4.89623979377207    6.57079477618931   18.22582215092361
O         1.96202937869915    7.71608158625058   17.15654044163079
N         3.21886428840943   10.47016600772464   17.46516392365849
N         3.87802059033841    8.69769384489598   19.26032931305934
N         4.29890539061827    7.75608726310526   20.08459875380674
N         6.07043223063770    3.47125985640179   21.96412774162314
N         6.03404165860096    9.12692624616062   17.03025775628091
N         4.07504353363493    8.01604959796470   15.71642941135519
N         3.00247920586973    7.51308765985462   15.13344136634954
N        -1.55400525014919    5.62723373419914   14.28728917802633
C         2.88133367896036   10.74789794922057   18.74146852995020
C         2.15450678625844   11.90099210995109   19.06025810042988
C         1.77390612273898   12.75779623954710   18.04711872007155
C         2.12227222928267   12.45352189568827   16.73827170487611
C         2.84516019955115   11.29391361578872   16.50316461999619
C         3.30985202200209    9.77593620028535   19.72391845340145
C         3.09557407474832    9.99466494356181   21.18999613798493
C         4.79418252235512    6.67936961678946   19.46966237852925
C         5.23602219213925    5.57631017520459   20.35515178057419
C         5.16254085628306    5.66729905977177   21.74276110753124
C         5.59354751793722    4.58615576496402   22.49318433215779
C         5.73694419179217    4.40347682772408   19.79551909328452
C         6.13721718916983    3.38673599875545   20.64580113545378
C         6.30830538704819    8.70462813562514   15.77866209057106
C         7.60150225676406    8.80301011927777   15.25190155130739
C         8.60772112690950    9.33379851217443   16.03370484984302
C         8.31064428253524    9.75656596677315   17.32213105826819
C         7.00516399914756    9.62832662394435   17.77133851704062
C         5.18925579722278    8.14551693998871   15.05154415681526
C         5.31443351257380    7.72547287402210   13.61941396187199
C         1.95733861938108    7.37127781621227   15.95216626440703
C         0.74465206918905    6.76627418451967   15.35267152967108
C         0.69013855306388    6.39164365310559   14.01259593982489
C        -0.48278132238521    5.82910739428464   13.53760324141561
C        -0.38137545231021    6.55420152026740   16.14435417662461
C        -1.49876845358994    5.98212912839520   15.56031649974527
H         1.88772529518690   12.10875367974888   20.08359296500113
H         1.20974193028686   13.65148380208542   18.27057703402500
H         1.84111501624263   13.09782103304494   15.92092106875388
H         3.13866759203407   11.02084810951915   15.49758438500009
H         2.03111953614848   10.00562415465810   21.42120520142198
H         3.52913716565910   10.94275983767526   21.50503545802143
H         3.56543836000847    9.18206819106415   21.73674779870112
H         4.77633557702180    6.55987880262268   22.20668109432714
H         5.55640843704815    4.60715988357008   23.57501278559960
H         5.79961079571523    4.30881716865866   18.72271696019403
H         6.53118776654885    2.45572644249217   20.25859454252506
H         7.80795335678709    8.45770518808274   14.25205432777679
H         9.61344543107967    9.41580532358490   15.64811045157245
H         9.07065482274991   10.17458373680113   17.96234777320790
H         6.73081774781884    9.94755503005959   18.76870297962484
H         5.68544031441417    8.54705948464931   13.00834053795941
H         4.33686993812940    7.41838050666016   13.25871943581438
H         6.00297576547856    6.88625941679902   13.52822452115442
H         1.54574585962851    6.53900334348096   13.37439524014597
H        -0.57539921332450    5.52066251979488   12.50394062058883
H        -0.36090905625608    6.83296305013336   17.18630607651140
H        -2.39714757249587    5.79556526740527   16.13479759653135

