27
CSD_code = OBOKAR | q = 0 | S = 0 | Stoichiometry = C6H16Br2N2Ni | MND = 4
Ni       -1.10129261206416    1.16368215596994    2.72264026551915
Br       -2.24705356419928   -0.39570578640910    3.76005336508200
N        -2.33077125071666    2.75656333774830    3.46976869809250
C        -1.86098555395636    3.97195028264319    2.79083072003017
H        -2.18379564897004    4.87121410532678    3.33747337784972
H        -2.31518256299848    4.00952202452841    1.79669608810037
C        -2.12749829010723    2.87220693023362    4.91694033005030
H        -1.06757657001878    2.95768928174097    5.15555250450091
H        -2.51594264138420    1.98316123919284    5.41231908604247
H        -2.64886443947210    3.75318219357322    5.31372478528412
C        -3.76635964708163    2.59994652797675    3.21891191169787
H        -4.14425483622007    1.73225147175707    3.75699788077548
H        -3.94819394186011    2.44781483404733    2.15426115894537
H        -4.31738228606965    3.48939764282258    3.54941073271272
Br        0.04307558668670   -0.39654176705768    1.68507774084609
C        -0.34248932787888    3.97231425722590    2.65485063410195
N         0.12786080402069    2.75682061400372    1.97648312062688
C        -0.07394615336384    2.87237616532391    0.52908209070914
H        -1.13357628335878    2.95919750103431    0.28953053854586
H         0.31379105501630    1.98273569456166    0.03420798437123
H         0.44896593213908    3.75260516790985    0.13268121907928
C         1.56312414609851    2.59983687736558    2.22884001299728
H         1.94142281988777    1.73211639495070    1.69110410679845
H         1.74377398357952    2.44760961397713    3.29365827964842
H         2.11465793121392    3.48914938859398    1.89899597530649
H        -0.02003629735229    4.87138560503960    2.10773543513194
H         0.11162964842994    4.01061824591956    3.64897195715414

