104
CSD_code = OBOLID | q = 0 | S = 0 | Stoichiometry = C54H45As3AuBr | MND = 4
Au        4.46228281349771    3.86063013027450    3.06828096422748
As        3.73499758898712    5.89725030718776    3.96276002072601
As        2.40018815859453    2.89863206330826    0.64376238665664
As        1.51799909605637    2.54616147600702    4.33685381136164
C        -0.04204253188618    8.16494325465274    2.31853050352470
H        -0.91962073102412    8.66921872414728    1.94246975189572
C         4.25510302113239    5.19469496217582    8.01300565891033
H         5.03221279133722    4.75305495665403    8.61849375307349
C         3.10707899425334    5.69297353704825    8.60892621478094
H         2.98963635767461    5.63654386490024    9.68071977710649
C         2.11179074534577    6.26289745331866    7.83440531696355
H         1.21777504331784    6.65120709835248    8.30152030999837
C         1.33656912057649   -2.16556586443534    3.90451070212825
H         1.30475243457742   -3.24175706562577    3.81448381162341
C         4.66774259257886    3.90875791958414   -0.93505079165804
H         4.74481917637888    2.89883322228715   -1.32089335418245
C         0.87030476266579   -1.55423202955050    5.05796066226859
H         0.47505733756499   -2.15237489754649    5.86745806295042
C         1.16360527927811    8.84236698776255    2.39872440138139
H         1.22745064922323    9.87316115299215    2.08025903700439
C         2.34788169146413    2.42341543574857    8.51643942002243
H         1.82161726100210    2.56270821732231    9.45088197921546
C         5.60509195641709    4.86313075815403   -1.29378153789182
H         6.40725871948034    4.59932232476284   -1.96797737309402
C        -0.73716259390997    5.51189363776733   -0.54717846405717
H        -0.89207957734071    6.33370249269773   -1.23302827195741
C         0.91524826786700   -0.17855522526483    5.17676983231593
H         0.55536529464745    0.29591970033906    6.08411379545156
C         4.34130348406665    1.85023226861995    7.31953007796000
H         5.37641641376642    1.53987305659698    7.31245223905976
C        -1.97049350642199    4.41398611407494    5.76220773850278
H        -2.19613134048852    5.33812631320890    6.27681194855743
C        -1.78720565825635    5.05408790170728    0.23157481423026
H        -2.75976875945318    5.51960522634785    0.15468199407581
C         0.50827083262431    4.91595338553260   -0.45626372087595
H         1.32238591661411    5.27801917804035   -1.07432931717687
C         1.84675818385690   -1.39566020831310    2.87422955910261
H         2.22051387589078   -1.86489925234263    1.97633999540719
C        -0.33932791523585    3.41253802982525    1.19702030195137
H        -0.16858869635451    2.58094771482242    1.88126861934491
C         3.67537464755770    2.03346932497988    8.52032186865120
H         4.18798722527945    1.86703529088272    9.45693649421009
C         1.42207192184214    1.08994794530700   -3.07504430727438
H         0.73871616639431    1.26299018058454   -3.89531982284627
C        -0.12238005784982    6.83824648083969    2.71222884552091
H        -1.05662302023796    6.30155178752287    2.64417507698880
C         7.31478746303239    8.94477539927021    3.79315563757321
H         8.14107462101451    9.63864322391570    3.74979676514573
C        -2.99607151696049    3.56756180940439    5.37460416778296
H        -4.02311379838613    3.82719090212662    5.58713181323042
C         4.39702228584304    5.25772107855982    6.64049571107841
H         5.28569999857600    4.85904823167943    6.15340249321519
C         3.56809560959564    5.52428850211563    0.44343412513916
H         2.75010715436643    5.78420719563210    1.11489726797141
C         1.00516406370377    6.19291242455362    3.18450542661492
H         0.96329428176542    5.13936230111550    3.46203093165763
C         5.52476824816856    6.14936134248302   -0.78624342661611
H         6.25942721110741    6.89103236000677   -1.06532794608996
C        -1.58776301707369    3.99997240600504    1.10878200530255
H        -2.40108025749735    3.64034414341312    1.72440563185218
C         7.30199197057323    7.83146158952862    2.96893645772147
H         8.11804497818742    7.65361463787920    2.28435442677215
C         1.88738616679075   -0.01630413298404    2.99398269153077
H         2.29954965439584    0.58526562367298    2.18675366336855
C         2.29036111017632    0.01200587662596   -3.11175309571313
H         2.28582199758474   -0.65604638269416   -3.96121501365534
C         1.42613800654162    1.94944038868032   -1.99011497227815
H         0.73936463508215    2.78801357902248   -1.96861399494576
C         3.67594349353880    2.05728203241843    6.12642447961482
H         4.19329019086957    1.89980449901619    5.18355318656346
C        -2.69891463071808    2.38996940991894    4.70957936357503
H        -3.49620328568589    1.72848070152536    4.40000078583179
C         1.68260357535521    2.62223093765469    7.31883386885965
H         0.63804605105336    2.91071134790084    7.33272021847303
C         2.26231293507423    6.34301131715100    6.45983114669221
H         1.49111611695570    6.80694767273178    5.85027948087571
C         3.16056825883550    0.64643745767492   -0.96884768935602
H         3.83874721987992    0.47630214909327   -0.13750298958084
C         6.24269989213465    6.94192763218937    3.02800121567631
H         6.22097521097106    6.05814583580711    2.39252261976689
C         6.27311093412884    9.16756717241487    4.68039636432129
H         6.28988518482135   10.03220092913065    5.32847667051518
C        -1.38345971958707    2.05725803189742    4.43715961524449
H        -1.15997033765071    1.13505654061985    3.91107273096753
C         4.49896497388780    6.48222826990725    0.08467196630337
H         4.42259046327018    7.48618554660112    0.48567077041447
C         1.41904400074419    0.60417173183719    4.14367207737368
C         2.33797689945744    2.43858597049088    6.11075189730189
C         2.21373776370066    6.87554946725039    3.29277401314829
C         3.15991198564065   -0.20929183814992   -2.05640342194744
H         3.83682918381363   -1.05125602948524   -2.07945949257510
C        -0.65801865290073    4.07800166793191    5.48545294337644
H         0.14627553324352    4.74409649869513    5.78606390591151
C         2.29045892034595    8.20202788414669    2.88707117059385
H         3.23767609245353    8.73067535486301    2.94568101714241
C         5.21252032896177    8.28133794223687    4.73690786271683
H         4.39588443681353    8.44526252492155    5.43595369986790
C         5.18687345179494    7.16699558971493    3.90448901300342
C        -0.34339752988918    2.88890923681767    4.83366150144014
C         3.40449440715815    5.83735395123917    5.85695643149158
C         3.63133273098694    4.23142137670059   -0.06893243667310
C         0.72048539260785    3.85813236992937    0.41618099999628
C         2.29906746903527    1.74064480742204   -0.93165831321837
Br        5.30206675903784    1.82997617653671    2.11864977358655

