61
CSD_code = OBOLIC | q = 0 | S = 0 | Stoichiometry = C29H25N2NiPS3 | MND = 4
C         9.26088380516546    6.39478803510090   11.61945444291695
C         9.62545741642133    7.67903675152476    6.51653453452091
C         8.06678326889497    7.44428521160901    4.66224573284665
H         7.60219154009336    8.26884290264037    4.11144830969023
H         7.39128049056591    7.11221524260597    5.45203776221457
C         8.40640167724555    6.30150910412991    3.70934592933428
H         8.77003085333996    5.44858242000091    4.29074245191893
H         7.51100684964835    5.98105837353552    3.17485564869546
C         9.47082979780101    6.72994654620320    2.73686755282784
C         9.63287239088447    6.05643438715625    1.53167031521824
H         8.97824146005121    5.22798414291076    1.30216994006602
C        10.61239420079741    6.43319410260434    0.63340270495119
H        10.72564598917014    5.89905480631008   -0.29792125098154
C        11.44647648606508    7.49857743694127    0.93160887748876
H        12.21423128587109    7.79979778640574    0.23515671708089
C        11.29515839147939    8.17350043626758    2.12722667484156
H        11.94393300506591    9.00351080134888    2.36780523594569
C        10.31408058847081    7.79576914358137    3.03618767604041
C        10.18361528151064    8.57176706611152    4.32358435580975
H        11.16506047943667    8.67826462058236    4.79522529212924
H         9.80870632475554    9.58158031320766    4.10040466583455
C        13.51894289683858    8.32772270662372    9.52593708105146
C        13.61615031922495    9.64274351285460    9.07678364585117
H        12.79843504766906   10.32655706460342    9.26547839665944
C        14.74358870254292   10.06219453180361    8.39859515910402
H        14.81802918604220   11.08299446493301    8.05359972226267
C        15.77578861399016    9.16908304980661    8.15479587562908
H        16.65576448177984    9.49513339442081    7.62032142868772
C        15.67673497319852    7.85802093410999    8.58934439430877
H        16.47929150393304    7.16176020980443    8.39438131915815
C        14.54926006409815    7.43168321812397    9.26972140194504
H        14.46809407322034    6.40692543188953    9.60438055097635
C        12.34088611031499    6.20664473595046   11.05262003234231
C        11.96531682828451    5.12184934185831   10.26132298423138
H        11.48233281494737    5.31566028196404    9.29768915763354
C        12.17067025710370    3.83133555331690   10.70535577520406
H        11.87020446013293    2.99217396897355   10.09588093641156
C        12.74547942026789    3.61947424949536   11.94957831614868
H        12.89411066685415    2.61185607089559   12.30812619327524
C        13.11005367391181    4.69471841019296   12.74207762940394
H        13.54072720273429    4.52381551587805   13.71755117517523
C        12.90994683280908    5.99148509556672   12.29942957508658
H        13.17416934951381    6.82872213385827   12.92869049804426
C        11.89414508615150    8.99114801469770   11.74288236461068
C        13.05516292425871    9.38277481446923   12.40481745196718
H        14.01760330451748    9.02628664619380   12.06299884431660
C        12.97131571254933   10.23625975460025   13.48912462002949
H        13.87100142947315   10.53679355794847   14.00622905257019
C        11.73771442735821   10.70658821156216   13.91225950914499
H        11.67848859474923   11.37096770878825   14.76159603439171
C        10.58404477864683   10.33262188367503   13.24344597724442
H         9.62432707333245   10.70574425940606   13.56791400176521
C        10.66047662503291    9.47906023212952   12.15741319279121
H         9.76819892158782    9.18195895427882   11.62132089552587
N         9.28115330757002    6.90883093221561   10.55318451841520
N         9.28885485357591    7.93232177830625    5.25621868132196
P        11.96787486412437    7.83930948791641   10.34331939013128
S         8.63657105278042    6.81740532254565    7.59185306073779
S        11.09236961294404    8.21352383893768    7.20567941413877
S         9.12701029127563    5.75202046319048   13.05088294028014
Ni       10.23412807838774    7.44953063178737    9.08864523251411

