123
CSD_code = OBOMIC | q = 0 | S = 0 | Stoichiometry = C50H67N2P3Ru | MND = 6
Ru        0.44841331245973    2.68528882848371    5.37393800027115
H        -0.41752188573840    1.53630021899802    5.94955095194904
N         1.36763033778573    4.07798248551891    4.78889817284711
N         1.95020314952065    4.98639562327565    4.47692857206991
P         0.88568092508157    3.25501602863980    7.58635789630669
P        -0.72714809486028    2.67583932256874    3.36053262653415
P         2.13844306928374    1.09683606547630    4.95162848539906
C         1.31052234513889    0.71449804973574    8.59460085857209
H         0.24331639498091    0.63388364057280    8.81543288854567
H         1.45402768733376    0.45136264896226    7.54274507979398
C         2.07915914577813   -0.25506598042980    9.48472531323846
H         1.72071987815192   -1.27311457329415    9.31565624027139
H         3.13924505443554   -0.22303425397065    9.22410283193630
C         1.91363565789713    0.12768717552577   10.95132032517444
H         0.86114343610253    0.04869778226810   11.23348353510811
H         2.48251442104213   -0.55601758463702   11.58500974996181
C         2.39127804003828    1.55895292949835   11.16785263913508
H         3.45498424931591    1.62517828133866   10.92507290990099
H         2.26859041950273    1.84041062674565   12.21634479430879
C         1.61140041182435    2.53216507759587   10.28453681040057
H         1.98076992526070    3.54145202374946   10.47063209517956
H         0.55571557780648    2.49477436140941   10.56089784357346
C         1.77413482367710    2.15322768824316    8.81210819118672
H         2.83976468367405    2.20791742623489    8.54764400483812
C         3.00853797852355    5.11559138806898    7.80443683506108
H         3.17011846671481    5.10417402349865    6.72552538890764
H         3.58045102559119    4.29509146636807    8.24449725164691
C         3.50552808752595    6.44722645295578    8.36063813704526
H         3.37475990175250    6.46255746091756    9.44625549013853
H         4.57213050251442    6.55859573990165    8.15212369948671
C         2.72723983575280    7.60063702566609    7.73688217076929
H         3.07341236604158    8.55256446036234    8.14587945707528
H         2.90303398743184    7.61158938736467    6.65915672067812
C         1.23501701819465    7.42855026313641    7.99955858187616
H         0.67696313445046    8.24271568691294    7.53258098324983
H         1.04842594575867    7.47094341236749    9.07636324465544
C         0.73854765633924    6.09269416932253    7.44964361218785
H         0.87154510934841    6.08154798685349    6.36632417868481
H        -0.32867313089731    5.99289390786609    7.65307634713154
C         1.51829809275273    4.94209643281929    8.08724455017581
H         1.35356207698102    4.99604718404535    9.17274994072225
C        -0.81488730667508    3.36703410334616    8.27127168055294
H        -1.17337631986475    2.34473838658574    8.43845189872154
H        -0.84816092459339    3.91904699097889    9.21636443942582
C        -1.63768919644927    4.02262128871404    7.19824904759746
C        -2.77228430605825    4.75301103725619    7.52474438961463
H        -3.07101408903370    4.84348152500748    8.56116511628286
C        -3.51528201958630    5.36872771142452    6.53460100690728
H        -4.39332948654733    5.94450252956310    6.78850174008435
C        -3.12655681910337    5.23203744791553    5.21513088596664
H        -3.70537709883867    5.70003244365723    4.42926433620138
C        -2.00210351142637    4.48578856808667    4.88819189560202
C        -1.21843105838035    3.87815035421228    5.87213176086127
C        -1.61030262551211    4.28997508033688    3.45165739878180
H        -0.90462199681772    5.07274995386901    3.14344308713733
H        -2.47699276888496    4.31499809267673    2.78330124678371
C        -3.09685220206866    1.52820533591807    4.30733327439133
H        -3.53450385622156    2.52333546150301    4.40605589059744
H        -2.53198884176500    1.32698048458994    5.22041253792989
C        -4.20906340243315    0.49451464765303    4.15666712015877
H        -4.86364098319142    0.53709314899742    5.02961340064171
H        -4.81243067626033    0.72935851701242    3.27531258173629
C        -3.62225626477264   -0.90435574170941    4.00772818738194
H        -4.42242726403538   -1.64125435743901    3.90770450859266
H        -3.04435977230098   -1.15096937986912    4.90086685679410
C        -2.71083438890785   -0.95298630709754    2.78758576348616
H        -3.29919934263256   -0.74666904854187    1.88918394052471
H        -2.27615560240439   -1.94990416030694    2.68079517461407
C        -1.59368098276040    0.07888958741702    2.91008680969194
H        -0.98043805462592    0.04698648596536    2.00559433258780
H        -0.95840685652501   -0.16913466415679    3.76529465644382
C        -2.14334834111011    1.48968195093566    3.11479299025713
H        -2.69454754360392    1.80517224997664    2.21922928350595
C        -0.97107881468630    3.20615431496376    0.54587735288376
H        -1.84875892789452    2.55886763205315    0.51430447259650
H        -1.30422963820084    4.22574854846466    0.74709710800970
C        -0.28708413147575    3.17799103325292   -0.81984657764801
H         0.02891625315495    2.15699781806640   -1.04839395713766
H        -0.99659368790438    3.48987498573326   -1.58995101042036
C         0.92918432702287    4.09659842271120   -0.82537831460856
H         0.60877212109822    5.12454365360739   -0.63989614521098
H         1.41584735136243    4.06880115309162   -1.80262853923190
C         1.90913300194882    3.66352346240530    0.25869556531142
H         2.76984673718993    4.33525707930129    0.27930319159044
H         2.27523105085120    2.65906197489438    0.03590737296831
C         1.23478444955035    3.66021449523550    1.62747358607290
H         1.95072099381462    3.31240251381887    2.37684336553941
H         0.94727469527666    4.68316598364123    1.88444935481498
C         0.00416456138817    2.75313486316256    1.63370583270342
H         0.34161385279225    1.73524366218065    1.40116908886731
C         2.19016532800952    0.23172583198833    2.33236630759318
H         1.25649767910804   -0.23106161345202    2.62387181432333
C         2.68467215527139    0.05578750462985    1.05516950143773
H         2.13305646194444   -0.53910013873478    0.34045563818134
C         3.88964934076850    0.63762696422122    0.69272293984805
H         4.28224111118987    0.49867815302062   -0.30403406113190
C         4.58674259387377    1.39705518348761    1.61553742817133
H         5.52557093393082    1.85494964088260    1.33951827559632
C         4.09577788548513    1.56885126074076    2.89913929559491
H         4.66680278232392    2.15055045090822    3.60724161033338
C         2.89446804165667    0.98072702081504    3.27379975294576
C         2.86598241605650   -1.59936158293288    4.70959911044783
H         3.79006569298333   -1.21448523683499    4.29924199098276
C         2.67892660819156   -2.96364612959532    4.81557790640371
H         3.45870987931184   -3.63781261068293    4.49140935173384
C         1.49523441056592   -3.46815835562033    5.33239501006301
H         1.35012770346708   -4.53585377984252    5.40862247621690
C         0.50292509173658   -2.59852337416986    5.74727989618867
H        -0.42282818014212   -2.98438681197034    6.14918927442265
C         0.69148724080624   -1.23024234315254    5.64676958659016
H        -0.08320146983743   -0.55028426197888    5.97232123997370
C         1.87036383312624   -0.71480865869795    5.12648731581236
C         4.25326804982607    2.57067642839741    5.92807941841477
H         3.80156076333158    3.35702714935189    5.33738986065843
C         5.39832428539339    2.83092269671063    6.65726931147221
H         5.84999495531544    3.81177288066885    6.61944201136527
C         5.95794918380384    1.83637907714182    7.44267580166037
H         6.84801695037238    2.03751881525230    8.02073716946423
C         5.36507002648759    0.58640783393152    7.49004748296821
H         5.79208576963011   -0.19026036938455    8.10902353256921
C         4.22678611470042    0.31928230485378    6.74825443468464
H         3.77823525583465   -0.66183115989925    6.80098395170729
C         3.66234979365367    1.30910556746003    5.95161897024371

