21
CSD_code = OBOPEB | q = 0 | S = 0 | Stoichiometry = C4H12N2O2Pt | MND = 4
Pt        0.39120135570269    7.42794296991153   12.69478217497995
O        -0.86497848690527    6.53725713472920   11.42372843222538
O        -0.86762379177592    8.91367280332056   13.13635278143133
N         1.65891073822685    5.74486049922100   12.15104790569926
H         2.20507304939143    6.05570942156123   11.34608874048631
H         2.30107542620295    5.34588048773682   12.83276947115750
N         1.65543129123335    8.47759461992659   14.12102952806941
H         2.29955209356630    7.95831352858733   14.71411409357216
H         2.19901205266192    9.14642468923243   13.57324521933736
C        -0.30131203956597    5.46181022698721   10.77949444296674
H         0.23492887975995    5.76258051041071    9.85421680077533
H        -1.10405900921888    4.76732870884272   10.48228752195133
C         0.69548442091726    4.72640518372632   11.69075987487436
H         0.16222283110535    4.34176586054189   12.56335356268581
H         1.19624776700548    3.90011738687552   11.16897000149504
C        -0.30882081360166    9.86310292347645   13.95844640538628
H        -1.11430294938837   10.35918356722249   14.52431738255225
H         0.22549371256604   10.65038153302868   13.38494041113865
C         0.68865978167962    9.23049274103582   14.94311891681344
H         1.18637259886812    9.98616662220097   15.56526227195138
H         0.15683109156897    8.52040858142566   15.58087406045084

