78
CSD_code = OBOQUT | q = 1 | S = 0 | Stoichiometry = C39H34CuN2P2(1+) | MND = 4
Cu       11.19448993295177    0.00712795442924    4.87965155322394
P        13.21056245629595   -0.18974326901693    5.81562184487187
P        11.82701942855591    0.69821273173935    2.76429074684045
N         9.48143647533572    1.07543367450280    5.07289973899001
N         9.88924173379313   -1.43197129578134    4.17896349869400
C         9.31150706518094    2.30813729318520    5.50245529439687
H        10.12467657044745    2.73535679753246    6.07303550803975
C         8.15252969382325    3.04379240016119    5.24975560948560
H         8.06312474626241    4.04865133289546    5.62990137854534
C         7.13901181102885    2.46760994880487    4.51853278452202
H         6.22838729472699    3.00733241407615    4.30552268061328
C         7.29780527313643    1.15635967703607    4.04045099643131
C         8.50337897909152    0.49356387088090    4.35297856745664
C         8.72357552471244   -0.83604617724219    3.87050093206444
C         7.74011321987568   -1.46356776974886    3.07732218813034
C         8.02129318043165   -2.75521211147150    2.60369756507173
H         7.29411929607268   -3.26975995283357    1.99371334094205
C         9.22140073462769   -3.34456437551807    2.92788613178710
H         9.46669887451194   -4.33591874074649    2.58235133424391
C        10.12829728695663   -2.64197486594211    3.72332143084154
H        11.07666838888895   -3.08076540120361    4.00465729277643
C         6.31855305200013    0.48671278456084    3.25140666540311
H         5.40191142009178    1.01103322585726    3.02680315965454
C         6.53200332780537   -0.76771610255303    2.78647700926812
H         5.79061677180235   -1.26716431898657    2.18132150143014
C        14.45081169423319   -0.76747692646709    4.57154601290617
H        15.43290277215316   -0.76734750973577    5.05823262339033
H        14.19738208608725   -1.81278367394965    4.36102771910138
C        14.50626745193756    0.03155211305457    3.26570385165212
H        14.54256167355747    1.10369577573901    3.48209851744164
H        15.43809255946806   -0.23030736342622    2.75626798492037
C        13.34702302667744   -0.24981862283052    2.30462438269598
H        13.10220018065427   -1.31602202805799    2.31865272370578
H        13.62718665932380    0.03298467551410    1.28339582824046
C        13.88426656497857    1.35704660046172    6.49124699108813
C        15.12356153990283    1.90968381332265    6.19144725454515
H        15.80729435984544    1.41057484066594    5.52114618616282
C        15.49099091626704    3.11812822952170    6.75981422354645
H        16.45473437578566    3.54546335896590    6.52600537398111
C        14.63378900949767    3.77733437616943    7.62465414305329
H        14.92917803272160    4.71816046970158    8.06319902739439
C        13.39636669542881    3.22932267601702    7.92777629342845
H        12.72800144767453    3.74162771915888    8.60381050572921
C        13.02180843221747    2.02870614852323    7.35786259343787
H        12.05629052137919    1.58528636181301    7.57391694007384
C        13.51019438186653   -1.38206323610097    7.15342055150290
C        14.66096328382871   -1.35411800476679    7.93420662892698
H        15.40579142547119   -0.58701594469232    7.77331735119761
C        14.83724308271288   -2.30431088817101    8.92300722645776
H        15.72823032037945   -2.28614767872806    9.53226230809074
C        13.87275446758600   -3.27750042449074    9.13554057191043
H        14.01677507149972   -4.01576984043408    9.90947281233339
C        12.72173674116254   -3.30073241376156    8.36432546707072
H        11.96881210268984   -4.05475839519556    8.53822652162516
C        12.53732702377131   -2.35096848430085    7.37627438715278
H        11.63847635154441   -2.33884745209331    6.77078700044253
C        12.36970038823492    2.39891163157464    2.42245631426249
C        12.67545267346406    3.19710515983674    3.52063009461056
H        12.54518339659055    2.79391868579563    4.51852937712296
C        13.14285676950821    4.48506387077883    3.33354449876327
H        13.38859698366527    5.09872961693310    4.18736524329474
C        13.29158571214016    4.98187585193840    2.04875677126446
H        13.65300358855878    5.98767350763432    1.89877391605261
C        12.97425126713785    4.19291483121449    0.95314518168568
H        13.08798690686373    4.58667090227545   -0.04562048153143
C        12.51627560378806    2.90091326106578    1.13333300299581
H        12.26722347865771    2.28263355584989    0.28170943874906
C        10.63224232075041    0.34525567438026    1.45144596301862
C         9.56732311702455    1.23983621180706    1.32855595378916
H         9.58998276712851    2.16613904712592    1.89017844967934
C         8.50811607441254    0.95521977372397    0.49065555087633
H         7.69494553108044    1.65854786667738    0.39101497656833
C         8.48840822833647   -0.23604282054535   -0.21881406894310
H         7.65995335862169   -0.46106126779823   -0.87263127906229
C         9.53397969920444   -1.13475206625634   -0.09064511743442
H         9.52044344830887   -2.06118222506157   -0.64530350725043
C        10.59939422749937   -0.85401910498138    0.74660059020206
H        11.40565766843237   -1.56654995995080    0.84203037439411

