84
CSD_code = OBOQIF | q = 0 | S = 0 | Stoichiometry = C36H39ClO5P2W | MND = 6
W         6.85529006101009    2.44070165036194   14.32520413441433
Cl        5.07598639057944    5.98046107348917   10.86722902423965
P         5.18675607465689    5.81923619672911   13.91887925959480
P         6.21659421243503    3.56387780182023   12.23840689107077
O         8.05612474301001    5.06098512768107   15.55981659445190
O         9.70270493010297    1.95863137474936   13.09383414361264
O         5.95392477164198   -0.29215461360498   13.07015488653982
O         4.07118616006304    2.99452579698467   15.66422500996139
O         7.72670566930692    0.96245803463662   16.94216493427913
C         5.52480137973525    5.22619251665816   12.36910697279044
C         7.57016293110413    4.13800391604678   15.09462261917106
C         8.66135033748249    2.12806099986241   13.52999509464982
C         6.24191419771469    0.71022658586288   13.53623002515011
C         5.07099840188432    2.78787667262809   15.15029606312011
C         7.40485637827564    1.50305086666862   15.98745195861412
C         7.61920409924004    3.76482859113004   11.10626104613455
C         8.35641256872067    4.94185448366744   11.06576866787202
C         9.50068490378444    5.01475673037202   10.29177258715602
C         9.92230809380973    3.91067977418430    9.57025746484844
C         9.20443328086088    2.72562517742037    9.62835025222559
C         8.06100677682771    2.64824035683192   10.39907977055294
C         4.94500435159845    2.79500159164294   11.18321506516743
C         3.91719407533354    2.10470124133309   11.81791483957145
C         2.88490093701851    1.55753796948660   11.07892929533619
C         2.87264378689075    1.69690727800308    9.70062204071031
C         3.89177730874956    2.38698381052121    9.06465427455806
C         4.92484503424504    2.94011928142866    9.79944407069944
C         4.29621409685237    7.35952876819274   13.47591399101034
C         2.88723004497580    7.31449232764668   13.36959706786411
C         2.25627287159928    8.32272715155493   12.66221728864635
C         2.94313483650755    9.38568292188346   12.08871834016429
C         4.29382593463009    9.48075168901738   12.35525756595332
C         4.99125672222516    8.50650691037117   13.06568898980423
C         2.03159558556660    6.23352498979101   14.03667554380052
C         2.13145502884334    4.90198282131882   13.28053481362079
C         2.46624862499330    6.05605247196115   15.49661186070736
C         0.54358271315273    6.61808077728889   14.07609841315813
C         2.18536142882526   10.40257486384656   11.25095694012637
C         1.50276750356214    9.67418912411951   10.08471889546238
C         1.12901038506793   11.08904005483025   12.12813007504991
C         3.09825704360950   11.48387307111729   10.66622194327289
C         6.45439149148906    8.83918783685846   13.36304672749628
C         6.49618658204748   10.20266222069487   14.07861510785117
C         7.23903628052770    8.91824033113781   12.04557508191415
C         7.16924545603391    7.85681974550147   14.28896802509323
H         8.03303221341935    5.79669129902899   11.64415903982731
H        10.06798914257821    5.93340068878740   10.25692055200132
H        10.81754859163298    3.96883369206745    8.96922515546966
H         9.54297066845369    1.86036822413414    9.07758622324472
H         7.49995644232681    1.72322826834920   10.46415733583267
H         5.71766642495550    3.47815795013737    9.29875441212876
H         3.88177085214106    2.49688004444738    7.98995552611344
H         2.06926422107064    1.26669947485431    9.12111414642505
H         2.09141331755677    1.02050610242088   11.57717176646973
H         3.93596996251181    1.99542169883765   12.89571504830818
H         1.19085781971438    8.28024816376923   12.52729861001251
H         4.84045867716695   10.32964111660825   11.98528307045999
H         1.97722785562548    5.05446831256022   12.21361887234150
H         3.10296783790306    4.43460744897496   13.42336556443350
H         1.37361411209387    4.21120321684552   13.64401644111028
H         3.50127484689182    5.72685339006311   15.57961254723132
H         1.84607961791496    5.30488759431423   15.98048447939609
H         2.36110437975984    6.99585857358109   16.03544829799646
H         0.00941294169150    5.89384812749248   14.68775842203142
H         0.40027369769832    7.60064632856713   14.52002832832163
H         0.09613342216762    6.59846655204348   13.08508990184506
H         2.24563639469784    9.16351085069775    9.47529860203452
H         0.78874350330402    8.93611496690197   10.43934890186982
H         0.97133141763416   10.38652194746565    9.45723887154344
H         0.40439044229858   10.37495477123007   12.50955660423641
H         0.59439884979578   11.84039722240285   11.55092393417911
H         1.60439405885527   11.57835723609116   12.97586677340398
H         2.51003533234866   12.15851818532999   10.04747617185837
H         3.56279292957309   12.07422468913706   11.45289641252350
H         3.87287746435152   11.04488680746006   10.04138304000145
H         5.93541660569517   10.15055620861104   15.00956319946803
H         6.07886433065224   11.00289998018162   13.47588302640247
H         7.52593516019531   10.46569272613204   14.31090763363265
H         6.88300282157102    9.72954077754585   11.41657827805003
H         8.29513209849068    9.08393524584636   12.24828889191321
H         7.13321931600635    7.99074051056414   11.48720618866589
H         8.10587780000422    8.29593322406983   14.62994503154828
H         7.42034102173242    6.92699598436179   13.78117817869029
H         6.57007892100468    7.63661403428395   15.17376286157277

