55
CSD_code = OBOSED | q = 0 | S = 0 | Stoichiometry = C18H25BBr3ClFeN6 | MND = 4
Fe        0.12729497276686   14.76042811175382   -4.78708487827533
Br        5.92830396735780   14.12256507017739   -6.04640389096168
Br       -0.20148819571843    9.75056770335702   -0.70048739390256
Cl       -1.39016614485856   14.13424827798579   -5.92562060398278
N         2.15069777336494   14.66423441544260   -4.70272974968854
N         2.79698609997050   14.47886951850885   -3.54698831977469
N         0.20059977332528   12.96011679228901   -3.14661996152461
N         1.12205244136042   13.23670298157188   -2.20386296623639
C         3.04025449383099   14.58310675086766   -5.69637944213729
C         4.29863992824822   14.33285285088052   -5.13190576654761
C         4.10034488316725   14.27546738897830   -3.76660538822959
H         4.79686184426323   14.10585096240344   -2.97189894549980
C        -0.37030767312558   11.80269269204603   -2.82517540155480
C         0.20713407110296   11.33311585393354   -1.63302114804618
C         1.14755209558174   12.27086747893286   -1.27465190610777
H         1.81248854551302   12.30104239313438   -0.43671828084007
C         2.70454025507936   14.67962833472892   -7.14927030820832
H         3.64257533886384   14.80259019614406   -7.70232813808460
C         1.79966743215554   15.87578436038280   -7.43289765044224
H         1.62445322081136   15.96864762525600   -8.50123199327938
H         2.25029699550028   16.79688000833359   -7.07208249118772
H         0.83447433907169   15.73607464694252   -6.93686614300974
C        -1.44007747380069   11.09733822184808   -3.59406346751263
H        -1.63274930316607   10.14819788488621   -3.07941705306406
C        -2.73526751545517   11.91055839569860   -3.58344964249279
H        -3.50668910488929   11.38893056809549   -4.14417579976959
H        -2.57317003560527   12.88594438236166   -4.03168084079801
H        -3.08397847375700   12.05127862814577   -2.56214521514076
C        -0.96464348569804   10.77920781941633   -5.01156594915806
H        -1.74859628248557   10.26397323460599   -5.56078538291202
H        -0.08498010828112   10.13928507293355   -4.97986394237896
H        -0.70845719372493   11.69337475399270   -5.53794852144209
B         2.03989723161594   14.46183151581829   -2.21727668831485
H         2.78564903929921   14.43839479909599   -1.30291241073711
C         2.03749981255724   13.37420454325326   -7.59274596940017
H         1.77906435527631   13.42226201110878   -8.64711369178127
H         2.70529487437331   12.53016610167528   -7.43779801858248
H         1.12756151819774   13.20876271390505   -7.01356853786105
N         0.38161918663192   16.03596646187800   -3.21967080009243
N         1.17619135289897   15.72384310843493   -2.19052847581773
C         1.05376490617623   16.62797310547341   -1.21294354910298
C         0.13414163588688   17.56632763774141   -1.63697573004142
Br       -0.45046830954670   19.08221983786617   -0.69034073547557
C        -0.27130097718275   17.16174850805476   -2.91637687437741
C        -1.29728736388788   17.81570468068360   -3.78386915810055
H        -1.47563626463166   18.82240072669301   -3.38919007322483
C        -2.60146501534930   17.01647319212453   -3.70069379892873
H        -3.36134509807264   17.46945055329468   -4.33157156746836
H        -2.43018324649122   15.99235249402600   -4.03430390366168
H        -2.97052650900217   16.99071780421515   -2.67811131750056
C        -0.81617143889611   17.92738170897447   -5.22808114891126
H        -1.54744267358218   18.46432152862440   -5.82594672680709
H         0.13271764898395   18.45544922256193   -5.28059923791566
H        -0.68924355599944   16.92873077839933   -5.65514794379475
H         1.60572140997564   16.56289359006160   -0.29840705991492

