63
CSD_code = OBUGEX | q = 0 | S = 0 | Stoichiometry = C26H18F6N2O8S2Zn | MND = 6
Zn       -0.00001669708589    0.00016795405984   -0.00026429452222
N        -1.67351151389777   -1.08655131088065    0.32919076523798
O        -0.91408798691573    1.29799607326372    1.29220096634960
O         0.74909581075147   -0.99561977903173    1.48686480252488
O         2.98931305278467   -1.27188068812172    0.52114652301046
O         2.12359057003022   -2.89182341202140    2.12289406979748
S         2.09094972556294   -1.55855149083173    1.61879224460452
C        -2.46329411464529   -0.47695429024440    1.21249265108732
C        -3.53486022984688   -1.12934168892472    1.80975520901488
H        -4.13108679903840   -0.63094841614554    2.55725414175087
C        -3.80596453653083   -2.43781265156774    1.43763915764024
H        -4.63543781460080   -2.96876694279065    1.88096883049081
C        -2.99442891553056   -3.04946124019904    0.49746107105134
H        -3.17625558904682   -4.06335305683306    0.17858472441852
C        -1.92454589630774   -2.33399295847709   -0.02301409551185
H        -1.24667162200928   -2.76654711805566   -0.74405330169109
C        -2.06252020505845    0.92889565749130    1.52222234827607
C        -2.98636252937159    1.79501048336366    2.27860626623171
C        -4.35184222194820    1.85352946439195    2.00318405754631
H        -4.74188329557275    1.28485710294458    1.17512231877648
C        -5.16615798693020    2.69718947736634    2.73602284891193
H        -6.22097771573209    2.75123019485821    2.51229527254097
C        -4.63424368808918    3.47693192584638    3.75157719426531
H        -5.27681155686037    4.12831457890197    4.32511559462562
C        -3.27531703358449    3.43245767934938    4.02020418675438
H        -2.85810936721598    4.04838382111075    4.80263833027665
C        -2.45100916302821    2.60658196319658    3.27982042036704
H        -1.39042700414986    2.56072257513613    3.47466889962535
C         2.77403330312987   -0.46267367950378    2.97767947284721
F         2.00622972598224   -0.48304168762554    4.06587155123505
F         4.01537298398009   -0.78042963451483    3.34484718660729
F         2.80211237312653    0.79897643974075    2.52774535995794
N         1.67347923254667    1.08682582222691   -0.32999498980568
C         2.46335619648405    0.47699214132970   -1.21305347564141
C         3.53491986908979    1.12924283582435   -1.81046489443357
H         4.13122174298153    0.63063222751259   -2.55775899604407
C         3.80591056018116    2.43785925665947   -1.43877634005928
H         4.63537824405291    2.96871891697110   -1.88222993060756
C         2.99426483138580    3.04977364053817   -0.49886614286963
H         3.17599384212994    4.06379091853321   -0.18033387491740
C         1.92440159091532    2.33440937892017    0.02179409249238
H         1.24645553317883    2.76716778658925    0.74264359947061
C         2.06263864080712   -0.92896163133120   -1.52236944109868
O         0.91412794334421   -1.29790916882211   -1.29247377578356
O        -0.74937220708459    0.99592957561892   -1.48726639790109
S        -2.09109269242589    1.55929922341658   -1.61876372552473
O        -2.98940905091714    1.27243730854165   -0.52113031762926
O        -2.12342681807354    2.89278361030563   -2.12232816649689
C        -2.77464467749026    0.46412216200763   -2.97798736116234
F        -2.00700674775685    0.48472340391375   -4.06629132006499
F        -4.01597014074061    0.78229286527277   -3.34484554618086
F        -2.80293579512882   -0.79768964586435   -2.52851530442165
C         2.98659689594505   -1.79544193748396   -2.27818904528722
C         4.35205617808641   -1.85374303553714   -2.00261437131295
H         4.74202195541340   -1.28452807449636   -1.17489173899649
C         5.16645495525269   -2.69787423574021   -2.73481871115915
H         6.22125432361641   -2.75174934493957   -2.51095502370060
C         4.63464919200332   -3.47831477417146   -3.74989274708584
H         5.27727939694273   -4.13008515100931   -4.32292110363077
C         3.27574742780055   -3.43403820756128   -4.01868145443722
H         2.85862252214453   -4.05049901505799   -4.80073862850369
C         2.45135982983011   -2.60768284303743   -3.27892469786404
H         1.39079316317130   -2.56197935434813   -3.47389494344459

