62
CSD_code = OBULED | q = 0 | S = 0 | Stoichiometry = C29H20F2MoO4P2S4 | MND = 6
Mo        2.03422353303721    0.56836875423312    1.92178736228733
P         1.92309957333528    0.85653216694864    4.31609758482749
P         3.89190224327849    1.98890228486723    2.61868879361118
S         0.17124458646926    1.44323940009174    5.27806045121761
S         3.07509892448317   -0.20474129296416    5.69175264515118
S         5.56941608693808    0.93643856379023    3.23431645587160
S         4.61102999482431    3.84447490810691    2.00501761522214
C         3.00787002542073    2.40247270933079    4.26321872186441
F         3.73028528850002    2.73689689989816    5.35593582573328
F         2.21310121333407    3.48538135982051    4.01461289311677
C         0.85551639206830    1.92448633834178    6.87214003854997
C         1.00090592464299    0.96750263467163    7.86294398958253
H         0.68855642403661   -0.04982716769194    7.68271580680240
C         1.54886424542852    1.33585118451801    9.07910211345652
H         1.67113840999115    0.59444595905946    9.85396030219139
C         1.93887108802040    2.64633337155987    9.29765646112681
H         2.37053879251216    2.92850583937615   10.24621452202630
C         1.77219185832825    3.59763965080585    8.30502331776546
H         2.07075327604452    4.62071931667835    8.47569277697222
C         1.22435878028020    3.24160850321347    7.08522884684070
H         1.08485176609780    3.97570581149175    6.30637081520455
C         2.82279204470954   -1.81846913454028    4.96682261561625
C         1.57052076566675   -2.19518659925589    4.50775005755729
H         0.72026472063498   -1.53061549418057    4.61725248107756
C         1.41048278052485   -3.44049158866574    3.92502713924099
H         0.43943569133889   -3.72988671201163    3.55338428228816
C         2.48820217975436   -4.30347794392645    3.82134031855597
H         2.35983857932645   -5.27125012356428    3.36121344443124
C         3.72977138337413   -3.92610980746253    4.30641015822015
H         4.57110372134248   -4.59729303420406    4.22677864642988
C         3.90453353876308   -2.67949570025297    4.87978304861870
H         4.87028186346068   -2.36436793526830    5.24316534007713
C         3.18891197229202   -1.01768229748697    1.94941233921826
C         0.50597030644857   -0.62161059223144    1.76863818079624
C         2.24240724366655    0.55688678017139   -0.01194817033997
C         0.83310924453311    2.11546365977760    1.79492177247667
C         6.51594170404557    2.11016494121086    4.22012391434793
C         7.29569779867602    3.06365497787592    3.58811331684159
H         7.32724651169024    3.11195946846952    2.51062460399623
C         8.02857821538357    3.94976780949049    4.35824752221982
H         8.63024165587649    4.70339077683127    3.87339465283627
C         7.99271988812252    3.86579394890410    5.74006955385016
H         8.56543971119105    4.56016838238567    6.33647193228025
C         7.22893905063721    2.88976907987330    6.35871914275135
H         7.20497603163420    2.81792848604308    7.43539979116614
C         6.48749190879492    2.00166095026753    5.59995413477961
H         5.88383250113996    1.24072346606848    6.07030599553360
C         3.19788533994146    4.26444372609370    0.98305264777512
C         2.33825894900157    5.27125874236208    1.38535398464531
H         2.50890462881089    5.78635698975020    2.31794117363738
C         1.25780019636356    5.59025189892760    0.58120579194485
H         0.57541915858228    6.36695212508950    0.89083782101364
C         1.04673792135851    4.90913679259875   -0.60625383183470
H         0.19644959706632    5.15554637480174   -1.22381359814717
C         1.92237819748073    3.91225125434117   -1.00390130681551
H         1.76449371252241    3.38310872748135   -1.93122288278372
C         3.01013410127983    3.58870103625012   -0.21140431214299
H         3.71949293364831    2.83339340827210   -0.52053811828255
O         3.82110488055957   -1.95884481423559    1.87030033447888
O        -0.37309197362397   -1.34395781928777    1.72033488801719
O         2.34348063210781    0.52425853201637   -1.14627811673234
O         0.09460228481516    2.97291006508699    1.68697197093318

