85
CSD_code = OBUTEL | q = 0 | S = 0 | Stoichiometry = C44H36Cl2P2Pd | MND = 4
Pd        3.83842442250601    2.03197744107698    2.94688096645531
P         5.00249091558038    0.85875166469820    4.48071336283781
Cl        2.13448630799363    0.51989267214480    3.30477030448483
P         2.71052080429498    2.61714009108243    1.07802131226759
Cl        5.65915381754407    3.29277711818155    2.39018080220362
C         2.64789070359514    2.87997143963125    5.88700812651655
C         2.66494079693999    3.75882480764640    4.79859635639630
H         3.54883387435697    4.37112013093322    4.60428540009341
C         4.23192143362535    0.38994270917380    6.09807043464177
H         3.17226898270843    0.19586454458862    5.91847782362609
H         4.72550421896079   -0.51077682723178    6.47400445169076
C         5.47265986128963    1.49041856740805    7.96975402549839
H         5.99916827571272    0.55845408001955    8.12178244359692
C         2.61335756415186    1.03475016561043    0.18722111610698
C         1.48732323477270    0.52718503061572   -0.44676802428980
H         0.56576199085511    1.09017365043971   -0.46452828315650
C         1.09041260973124    4.68489127835450    1.66020739633117
C         3.39946083943336    3.46126874664328   -1.51534929343264
H         3.02479076508381    2.50616807323882   -1.85874876023281
C         0.34610605102873    3.25184648620748    4.36869628919050
H        -0.56037158096924    3.42924356158862    3.80700297572129
C         1.50547990264914    3.94944869984512    4.03628231376769
C         3.89617926842462    4.98294060554514    0.28172268409678
H         3.91976889825835    5.19935384681020    1.34085402763565
C         0.98215454397885    3.26711343428258    1.18687672226685
H         0.52844595830626    3.22914121799801    0.19271034931118
H         0.43967224120487    2.61707918810679    1.87693506912766
C         4.47069336326053    1.55543517425465    7.00972555870114
C         1.47842072521431    2.18636285830051    6.18920944458750
H         1.46150071699163    1.52348365464552    7.04286336329635
C         3.79763683014110    2.76562598647579    6.81311179251260
C         0.96924486226919    5.72223816093273    0.74312483462600
H         0.70272691665021    5.49411242355780   -0.27971842977816
C         1.44611979472464    4.98468804725672    2.98010566057663
C         1.19025672485465    7.03602548499990    1.11400578098532
H         1.08394132918795    7.82571613680593    0.38553057546941
C         1.68777637126925    6.30791258394626    3.33743449344031
H         1.96508333276391    6.53084464184562    4.35782604716216
C         3.78624664013309    0.27884050262689    0.22174084814793
H         4.66557509643260    0.68003330798427    0.73411096262281
C         6.92385042746243    2.66681212029603    5.32988974839424
H         6.17551533483710    3.41075263740718    5.09422165031962
C         5.31458207717512   -0.69428473376211    3.59455187466342
C         4.37446639344229    5.90367200772926   -0.63114579610894
H         4.75918988936955    6.85165441885655   -0.28579019597547
C         4.16142237301545    3.88018340886720    7.56150366655294
H         3.63921637893182    4.81229567987954    7.39880571901474
C         3.88024210690991    4.38675619668613   -2.42416337273750
H         3.87780021527477    4.15323025893987   -3.47918198473356
C         1.53877050554586   -0.72066561972378   -1.04542503605785
H         0.65851532773939   -1.11661772860536   -1.53091522555119
C         7.61967662901183    0.36497406073221    5.35878514470479
H         7.41472623604347   -0.67876909567561    5.15948634366817
C         2.70620222182213   -1.46334768560694   -1.01594423538421
H         2.73658023949845   -2.43861212472521   -1.47911616138125
C         0.33779389853312    2.36881747954844    5.43130865181256
H        -0.56569311411726    1.83241250059230    5.67924640880950
C         6.65983515267288    1.32789736839320    5.06856975717256
C         3.83301108031139   -0.96185230075366   -0.38252765654285
H         4.74131437874730   -1.54478524345597   -0.34904370706012
C         1.56545124671161    7.32886707811548    2.41343825545190
H         1.75805401143252    8.34980751988221    2.70751582009882
C         6.50458191461084   -1.74733315640452    1.78731038090361
H         7.23379079018732   -1.69718526915656    0.99103074462647
C         4.36459973126423    5.60766982198322   -1.98428814270457
H         4.74107139010875    6.32619998009703   -2.69770280017336
C         8.14018345582799    3.04090755007527    5.86948503393068
H         8.34300370794515    4.08279255069247    6.06763365249426
C         3.40321689696877    3.75837921010358   -0.15758593925759
C         6.24141265602388   -0.62779178481528    2.55272646564335
H         6.75695025693514    0.30888000523963    2.36276856167903
C         4.62537832129579   -1.87669050597083    3.83204114339132
H         3.87699069675277   -1.92191390754453    4.60933432787472
C         5.16718083423120    3.80290317849783    8.50692632975124
H         5.44133983384234    4.67779334101531    9.07727365072891
C         9.09630064880870    2.08033445002183    6.15361058041582
H        10.04791914093934    2.37174853990871    6.57363156923627
C         5.82843011656783   -2.93187005900153    2.04016740733413
H         6.03101272656443   -3.80756574838246    1.44056458160576
C         5.81408569032680    2.59877736216522    8.72280393032073
H         6.59398511104847    2.52450853185873    9.46568515304164
C         8.83555475899044    0.74408163622679    5.89706937505949
H         9.58160508383654   -0.00555333540137    6.11894487138754
C         4.88586287592311   -2.99092679031968    3.05231851215253
H         4.34829094912745   -3.90952519231951    3.23624961337101

