73
CSD_code = OBUVAJ | q = 0 | S = 0 | Stoichiometry = C26H36BN6O2PW | MND = 7
W        -1.53837327623451    2.37378648404239   10.26869881756998
P        -3.95114168439101    1.95201705214243   10.61666605820592
C        -4.54659126010267    0.47191947144639   11.52255171832257
C        -5.04866902466133    1.79472906477425    9.15031348081484
C        -1.00406138304465    1.11565022797502   11.65306986317723
O        -0.69636999349911    0.26404385449959   12.37624404222185
C        -1.89269040139947    0.58611506231678    9.35513119452634
O        -2.65380464935385   -0.35122062464019    9.27963167112406
C        -0.57208077645982    0.67786382337587    8.56232123743864
C        -4.82427206845992    3.34034148501722   11.42310524735755
C        -5.48767110824380    3.25265579080692   12.63922746682810
C        -6.08196698659393    4.37430527062726   13.19263344298008
C        -6.01948103626800    5.59276421317914   12.54031561316599
C        -5.36787304575869    5.68691901345636   11.32110095479533
C        -4.77664991121866    4.56819946025630   10.76861235702811
B        -1.04604734634725    5.55297994282571   10.03348293852782
N        -1.93520075071627    3.93075590168493   11.72835485393159
N        -1.78733317359461    5.20596532200214   11.33318620193201
C        -2.10241094165182    6.04003443745296   12.34374240586010
C        -2.45508654933852    5.26217453844465   13.42774278906447
C        -2.32487993826555    3.93836871868952   13.00028548926520
C        -2.06615702023704    7.52271942128918   12.24786433990313
C        -2.51226589563235    2.71948738558646   13.82722100860950
N         0.36613368474157    3.45881160794323   10.18823771027687
N         0.30034881404059    4.79758872909291   10.07267265045795
C         1.54442878576950    5.31794969456440   10.07765513334554
C         2.43447363766149    4.26851843357104   10.19954276262309
C         1.64848076530232    3.11467154399934   10.27230820178061
C         1.84719037145744    6.76917369543495    9.97073617852880
C         2.11532080318684    1.71134278797427   10.43440007099500
N        -2.00969318794990    3.75402837646249    8.58908647763693
N        -1.83243731173681    5.06484888872643    8.81853530497491
C        -2.26928237968431    5.78860657744211    7.76528087792757
C        -2.73421241270504    4.89689343030774    6.82137930977758
C        -2.54168416286329    3.62597303622435    7.37840917589167
C        -2.24359573345252    7.27321442553776    7.70142094828833
C        -2.82996155367834    2.32946402141658    6.70646502604625
H        -4.12552296870429    0.41550397784156   12.52263245488610
H        -5.63545943985583    0.47416490027518   11.56908038111658
H        -4.20318358653530   -0.39201513157539   10.95694777498055
H        -4.91570649760613    2.64435956219056    8.48647714548388
H        -4.79930332220397    0.87383947386118    8.62882245418626
H        -6.08659156670648    1.75569739675906    9.48221949269833
H        -0.78023450610877    0.42879525517629    7.52031713039493
H        -0.10662735658717    1.67716656308753    8.59177145954606
H         0.12461579553084   -0.06122226597937    8.96350983363015
H        -5.53861134819999    2.31065043030903   13.16344481110635
H        -6.59350862938525    4.29672093640755   14.14145276132853
H        -6.47721163100318    6.46720205272709   12.97902088226085
H        -5.32071951722554    6.63514504502185   10.80488541506683
H        -4.26281782079569    4.64260944176851    9.82037902773814
H        -0.85946180497127    6.71431659486880    9.96129105244987
H        -2.76549306422168    5.60022197601098   14.39525140112926
H        -2.50982273063432    7.95114056263363   13.14254626372158
H        -1.04211860058277    7.88313090513637   12.15950418703290
H        -2.62111659519591    7.86596357657556   11.37744525687973
H        -3.29109474629645    2.88474033596145   14.56782257672263
H        -2.76554708705289    1.87478061604359   13.19400837489716
H        -1.58469281623509    2.48405287884773   14.34963210448424
H         3.50339738227416    4.32555688987242   10.23633445525226
H         2.92459482323175    6.91184998759086    9.96057446780949
H         1.42760556504271    7.18718596559229    9.05715560891715
H         1.42900661729922    7.31397503336845   10.81572834655259
H         2.99779398280952    1.69191134595462   11.07049147127397
H         1.33263696027906    1.10825355652835   10.89035932467208
H         2.38635852471197    1.27554090559591    9.47193199291465
H        -3.15302874981411    5.12342167884758    5.86159773936611
H        -2.73858691419698    7.60334827006566    6.79162537565234
H        -2.75505202319832    7.70550145970654    8.55981561174608
H        -1.21981073502798    7.64498036576109    7.69683193051563
H        -3.76224325073753    2.39745533809908    6.14800385026972
H        -2.03567127140066    2.09708413049285    5.99477921385560
H        -2.90400296931742    1.52300942262287    7.42897534826315

