66
CSD_code = OBUWIS | q = 0 | S = 0 | Stoichiometry = C31H31Cl2PRu | MND = 9
Ru       -1.92657350162936    8.73881765365197    4.72485778539041
P        -1.70133890635415    7.81867814790702    2.66137179857335
Cl       -4.12116625963832    9.01370085314995    3.88108206492328
Cl       -1.30967807762163   10.73267010775215    3.61991696188991
C        -2.48991124205820    6.25822647294280    2.56938505628481
C        -3.07964569926444    5.20201848080166    2.64193898752081
C        -3.76518690760309    3.97070730911304    2.69397509376222
C        -5.15942644263227    3.95276537482765    2.76798338743667
H        -5.70037791389786    4.88689365174837    2.77816183973437
C        -5.82948478814955    2.74881130675171    2.83348183456924
H        -6.90851360327817    2.74236528705310    2.89177723767842
C        -5.13845311411890    1.54095924624999    2.82718611771948
C        -3.74968463312752    1.56781586537950    2.75383771696209
H        -3.19970818152153    0.63731051257891    2.74928417900875
C        -3.06423617104060    2.76390066887300    2.68782450738389
H        -1.98505607843181    2.77520457004288    2.63303518764176
C        -5.87675855185875    0.23940402542421    2.87339148339019
H        -6.13654731876344   -0.07507763408286    1.86171563466881
H        -6.79963781483851    0.33606315113933    3.44077734133199
H        -5.26497461414585   -0.54059483671712    3.32084321907789
C        -2.31801262774368    8.65884831136509    1.17404461505911
C        -3.60048582128215    8.38753689485250    0.70882927129585
H        -4.21556778696320    7.66879168388984    1.23063626134685
C        -4.08139493289799    9.05965066004478   -0.39940228065610
H        -5.07972690566166    8.85595501364463   -0.75782804824418
C        -3.29111866413707    9.99937121842466   -1.04108402246176
H        -3.67365163370230   10.52827117126773   -1.90194574902084
C        -2.01426437804988   10.26841295095866   -0.57572180435407
H        -1.40190159715308   11.00744707711029   -1.07114457309345
C        -1.52211245161585    9.60053696999543    0.53050784590748
H        -0.53424132673023    9.82065247422947    0.90851819024858
C         0.01693660719212    7.41847533797119    2.21994087871125
C         1.01683252929636    8.31641409110095    2.57993298958494
H         0.74396012420175    9.22101227685718    3.10934244209849
C         2.33340948801620    8.05282607531286    2.24773785920349
H         3.10971813679652    8.75226635569967    2.52246357079090
C         2.65616016899888    6.89245040090880    1.56211209721473
H         3.68477069587136    6.68443656271874    1.30593511348046
C         1.66036523673313    5.99859667866435    1.20198740084635
H         1.91346710385280    5.09644575325035    0.66411699179592
C         0.34081969463524    6.25871201057437    1.52618196501917
H        -0.44238163030232    5.56836998664772    1.24615631736817
C         1.08808234616203    9.72685390721582    6.02824879310520
H         1.41350301739184   10.11817063389624    6.99236030041842
H         0.93583512625226   10.57286043591035    5.35513265331019
H         1.86991319877155    9.08954996809682    5.62071152772640
C        -0.19783370331997    8.97297153146236    6.18075584196888
C        -1.33061116241678    9.62334627616971    6.75331265718171
H        -1.23450449900155   10.65415818987842    7.07875586811512
C        -2.53134064224695    8.94038164632591    6.93169379853510
H        -3.37294749674011    9.43868803532732    7.40159014104862
C        -2.66293994644204    7.57201357081101    6.55095304756506
C        -1.53844674252965    6.91897310784261    6.01766695645817
H        -1.57958937218905    5.85901890920832    5.79509285208431
C        -0.31422927670244    7.61688412460194    5.82898113633787
H         0.55577836054009    7.07742566852145    5.46691442421169
C        -3.94142425840792    6.83360914103782    6.86776971626628
H        -4.72546344387495    7.57872285626509    7.04238978998704
C        -3.74071636867029    6.02552536383140    8.15508917688561
H        -2.97195519993900    5.26790984358029    8.01417137235095
H        -4.66812128807448    5.52847295479121    8.42868485019553
H        -3.44038789853392    6.67335194949682    8.97684240333222
C        -4.40155884166958    5.93738669882407    5.71983596930882
H        -4.46919257124547    6.52396411634076    4.80561498070630
H        -5.38258476676232    5.52584319565314    5.94399285757010
H        -3.71538477980128    5.10919770485487    5.55769411821716

