111
CSD_code = OBUXIT | q = -1 | S = 0 | Stoichiometry = C36H54B18ClOZr(1-) | MND = 7
Cl       -4.58830185586397    8.28635544757985    3.17111815791009
Zr       -5.53075908076344   10.47858867671408    3.40883276978678
O        -3.16928023855173   10.93145167187312    2.33320794160700
C        -3.19609692607362    9.49763936397706    6.50650656776221
C        -4.70321445139787    9.20096417976003    6.58931523074898
C        -2.17288581207507    8.35425305025626    6.63569854993375
H        -1.40382254738585    8.66783889564553    7.34780880803506
H        -2.64300157892593    7.45884073339801    7.04714448026771
C        -1.47303572660628    7.96225043808979    5.36745074623337
C        -1.98950102829150    6.98513780446812    4.52333685113360
H        -2.92587118854226    6.50827083155139    4.76721728282664
C        -1.31700856693029    6.60792500401956    3.37472073248447
H        -1.74072487257850    5.85013950318793    2.73169146284202
C        -0.10331853363820    7.19122832720500    3.05417490384394
H         0.42942348408540    6.88914986648535    2.16285771508950
C         0.43186556668599    8.15468158516753    3.89318525498554
H         1.38906387833653    8.60182792907214    3.65903839351423
C        -0.24832408835752    8.53615714367407    5.03544595526673
H         0.17576534041074    9.28385197850976    5.68997412584331
C        -7.22068510880960    9.74004197535599    1.27809370442261
C        -6.29126679280029   10.86113193742895    0.75716412910419
C        -5.13954412022317    7.72888906603132    6.64763622571667
H        -4.94171721683708    7.26866286181712    5.67126186378766
H        -4.56218160685055    7.18540369949248    7.40249082746686
C        -6.58863888415703    7.54182360685087    6.97777469997552
C        -7.01018918436910    7.39936410868470    8.29524614854045
H        -6.28136844367424    7.43020056672060    9.09262039822348
C        -8.34958755170868    7.23044670873753    8.59436538961716
H        -8.66158972952532    7.12275001877664    9.62457876986647
C        -9.29282215383170    7.20018107209203    7.58021114487081
H       -10.33988616181456    7.06921109871623    7.81586607807780
C        -8.88553492829359    7.33751343610508    6.26427907731485
H        -9.61020518396749    7.31580234452400    5.46275272680525
C        -7.54445023107193    7.50264608180766    5.96984857250643
H        -7.22954937051087    7.60208531295231    4.94008625736450
C        -6.89348528005126    8.30197102866180    0.82003773480456
H        -6.86630315977134    8.26847116549036   -0.27374754834881
H        -5.90779571475019    7.99725925374809    1.18914276724318
C        -7.88327686404103    7.27094904855825    1.28118621141546
C        -7.66071383247541    6.56379186529945    2.45613382103489
H        -6.74730611658159    6.73993881995993    3.00605018399473
C        -8.57402551518632    5.62665196483582    2.90515893543455
H        -8.39030149997389    5.09479321967899    3.82808840796156
C        -9.72091454036514    5.37160673847479    2.17304545054344
H       -10.43942083957940    4.64307626688078    2.52274293642997
C        -9.93598886023419    6.04463372096429    0.98191679185512
H       -10.82114706729188    5.83589264385546    0.39654185240998
C        -9.02270578849595    6.98384870478895    0.53804327246455
H        -9.19393797370443    7.50105184200416   -0.39492876556408
C        -4.99349793983103   10.46836132794379    0.02640655440755
H        -4.37220348247832   11.37070292478261   -0.03776903986598
H        -4.45240919980681    9.72646742734560    0.63466974984197
C        -5.09325776227509    9.91618044643733   -1.37349084777121
C        -4.71096110289238    8.60747934028565   -1.65038368798439
H        -4.35262091784711    7.97303493863187   -0.85078276982485
C        -4.78236201299613    8.10133800993017   -2.93633140649663
H        -4.48566757612564    7.07945194251080   -3.12829359100572
C        -5.23151208372615    8.89970321442307   -3.97370642202955
H        -5.29142828598768    8.50477826813641   -4.97817659753261
C        -5.59778975566631   10.21016240471378   -3.71459472336076
H        -5.94286074788239   10.84328433849482   -4.52001932189727
C        -5.52249955373372   10.71434936231693   -2.42954600085022
H        -5.81269978037459   11.73506276394087   -2.23667470758294
C        -2.50046111477942   12.20023973804771    2.29359665445891
H        -2.20494155924161   12.48413183908538    3.31105065946170
H        -3.19547894093588   12.93870832629398    1.88889570139698
C        -1.27472549837025   11.97451509519712    1.41799446337283
H        -1.56134496690286   11.92369025675603    0.36598336863514
H        -0.52310685598654   12.74928245272921    1.54680029742850
C        -0.82317618447278   10.60709935362457    1.91983307011537
H        -0.22920030530336   10.71877247695972    2.82555561774449
H        -0.24547014311112   10.04846084715773    1.18735410792071
C        -2.14728855358639    9.91344391973024    2.25280096338534
H        -2.43802159203387    9.20570292153034    1.46962006630589
H        -2.09324694325530    9.38792542659659    3.20881487105560
B        -5.56998027456940   10.29845523089051    5.78670267117098
H        -6.68144331308885    9.97681333969864    5.40749734668609
B        -4.39393713028727   11.46640405055065    5.14559960906274
H        -4.59001378183592   12.27995921594736    4.22744163356799
B        -2.90105656277785   10.81254893205398    5.61503474872239
H        -1.84703139507951   10.87792673610615    5.04593374089328
B        -5.54700136369677   10.42580521294786    7.58033347002202
H        -6.50348405181474   10.11177186398539    8.19884631894756
B        -5.32967984896576   11.88079607513840    6.61917744566073
H        -6.16263781937262   12.72839561405033    6.58327422482339
B        -3.58407480179440   12.22482832299548    6.55863952764292
H        -3.14131754173135   13.32415997323307    6.46630576106800
B        -2.77398848394032   10.96225724234289    7.41322295189335
H        -1.70950438146711   10.99182709695469    7.93738972453942
B        -3.97156512100396    9.84577783443970    8.03806735325851
H        -3.76402205296253    9.08939462575541    8.92611164491177
B        -4.31005297224621   11.57160318364435    8.05366179501239
H        -4.36882207619125   12.18821198352336    9.06307551141136
B        -6.25361155901574   12.13563734499806    1.80059184924611
H        -5.26996635481694   12.83208886284831    1.79980169862049
B        -7.36366022041104   11.79913430727720    3.10874364599100
H        -7.31458333343286   12.28473628008968    4.20674230621182
B        -7.85605010886123   10.14649011097569    2.73265561759003
H        -8.19321415766601    9.26386993967002    3.47478332875063
B        -7.18934772625465   12.29866283583734    0.28871179319064
H        -6.77691458678829   12.97275223808076   -0.59249679321356
B        -7.89804082673735   12.86215486979006    1.79972087243976
H        -8.07952605672600   14.01699990410155    1.98873797631219
B        -8.96151715625210   11.56483596144708    2.41187323096797
H        -9.94145590543858   11.76704316218964    3.04377267867328
B        -8.89910592473048   10.25572076662688    1.26257434176916
H        -9.74605519244814    9.45747724794267    1.07337450214688
B        -7.84100472367771   10.71549976670398   -0.05237064552890
H        -7.86994765963409   10.21303877648336   -1.12091150845615
B        -8.87975743444652   11.91977467945342    0.65000366887767
H        -9.78312729609584   12.37917444237502    0.04165493147206

