42
CSD_code = OCADAY | q = 0 | S = 0 | Stoichiometry = C21H15Cl2N3Zn | MND = 5
Zn        2.66971530956649    7.99390250771441    9.00888396166069
Cl        0.95915256223537    7.00157885093460   10.08564784109703
Cl        2.94442827158488    8.12977875645510    6.81335384266060
N         4.22726608297703    6.48537033065061    9.42179620063309
N         3.51606014002742    8.51248603493317   10.89321932843667
N         2.10265600200725   10.08916532375970    9.38228327412193
C         4.64650856175412    5.56874269876542    8.57069364875091
C         5.49913478509482    4.53995890204922    8.94611894449195
C         5.92801449958802    4.48796101980897   10.26214947487109
C         5.48801582837553    5.45383998284337   11.15274749215891
C         4.62299689199592    6.44429254151312   10.69558756153964
C         4.06670026221290    7.50308967617904   11.55318634604130
C         4.04388502467958    7.45341166717860   12.94228580031081
C         3.41804192641927    8.48129478410710   13.64607734003450
C         2.82771576063531    9.51655309937765   12.92230109159497
C         2.88869429430271    9.48973309043502   11.53374799017715
C         2.22771144944637   10.46839735992035   10.65553521621854
C         1.74653602034012   11.69926782104922   11.09363027134296
C         1.11575128402081   12.53242438857497   10.18411782153579
C         0.98935498450741   12.12010901422710    8.86771204749245
C         1.50660543560986   10.88248424308720    8.51260335616464
C         3.35916110238316    8.46246673200820   15.11361873869632
C         3.09133599344678    7.27779426436673   15.79563820087537
C         3.03133899050361    7.26534479082651   17.17681746569594
C         3.24931275997393    8.42981543332441   17.89439697800239
C         3.52044172614728    9.61137399340934   17.22432177263745
C         3.56915017633139    9.63070766496347   15.84295729398112
H         4.28894159288827    5.67390686642883    7.55560190692077
H         5.81639896546700    3.80431896273907    8.22478586629665
H         6.59808803082719    3.70844098522226   10.59352527516858
H         5.82219466720955    5.44240274272817   12.17787269364677
H         4.48406417484343    6.62815017288556   13.47794592955616
H         2.28595756615249   10.29006025802267   13.44182990811447
H         1.86858941127373   12.00697373945710   12.11971446347801
H         0.73115868415946   13.49054798756473   10.50133111310907
H         0.50314812822672   12.73993805533529    8.13177910137530
H         1.45138576145790   10.50764583370072    7.49965307992797
H         2.89804909284010    6.37307779142901   15.23861638420952
H         2.81230376888658    6.34374343273864   17.69502651067604
H         3.20639746158745    8.41731724512200   18.97306034573351
H         3.69387892366836   10.52099559926359   17.77989947255522
H         3.79725764435832   10.55063535489550   15.32422864802917

