49
CSD_code = OCAHOP | q = 0 | S = 0 | Stoichiometry = C20H22CoN5O | MND = 5
Co       -8.09914016751236   -2.17958129263581   -6.72333808244133
N        -6.69471222447110   -1.25925980885270   -7.62229528552645
N        -6.68234162820920   -2.66693275747209   -5.55643847252150
N        -8.09913855548723   -3.61343464251262   -7.67477563436641
O        -8.09913927703250   -4.66555719005055   -7.10911480857507
C        -5.50460457209591   -1.33800630057376   -7.04629671534512
C        -4.43717655690432   -0.47970192977391   -7.37487877246396
H        -4.70833830347489    0.37115262342771   -7.98507438709301
C        -3.10909367249331   -0.52347800476480   -7.00609906937119
H        -2.50420498835970    0.29944849614741   -7.36973746729508
C        -2.42667766000193   -1.49904338976797   -6.29633467010955
H        -1.35466752523220   -1.37783355836931   -6.21471753125672
C        -2.97178398618466   -2.62339614624148   -5.69443913493957
H        -2.25702859626742   -3.31129798777902   -5.25732323980102
C        -4.29460326561313   -2.97057021008542   -5.52352319178838
H        -4.45240063962580   -3.89790004398917   -4.98998879547327
C        -5.47025058489841   -2.33828921519654   -5.97663355771609
C        -6.83823371731285   -0.47448671742029   -8.82634007972919
H        -5.97135208854114   -0.64797173477098   -9.47757289922102
H        -6.88085138432691    0.59942183950362   -8.58606895421804
C        -8.09914082043734   -0.86322678780325   -9.58782044935822
H        -8.09914073919602   -1.94144933584848   -9.74821958775881
H        -8.09914057852220   -0.35850747265126  -10.55561052402146
C        -6.82978027268680   -3.53447930590266   -4.41038598140779
H        -5.97960597635171   -3.40137092786667   -3.73123822208768
H        -6.86522327415372   -4.58375359581744   -4.73371942681154
C        -8.09914204855434   -3.20297036244943   -3.63250977253270
H        -8.09914188471095   -3.77360027804918   -2.70172807734844
H        -8.09914492935490   -2.13838993071793   -3.38632747371412
N        -9.50356975143709   -1.25926095805802   -7.62229645500822
C       -10.69367734345181   -1.33800911781036   -7.04629805130220
C       -11.76110606162275   -0.47970584502470   -7.37488018252489
H       -11.48994419687475    0.37115073810719   -7.98507291796585
C       -13.08918918162695   -0.52348314464073   -7.00610091604688
H       -13.69407701967523    0.29944628669549   -7.36973397160024
C       -13.77160449798587   -1.49904847440974   -6.29633591947336
H       -14.84361457841331   -1.37783923864642   -6.21471868244371
C       -13.22649750831906   -2.62340169286806   -5.69444174010501
H       -13.94125292819591   -3.31130706790134   -5.25733091899341
C       -11.90367819074731   -2.97057597113513   -5.52352749228403
H       -11.74588041711697   -3.89790758759637   -4.98999626995779
C       -10.72803104881346   -2.33829309585062   -5.97663576205948
N        -9.51594033898557   -2.66693584480864   -5.55643958120518
C        -9.36850044456189   -3.53448461024763   -4.41038914714003
H       -10.21867676951202   -3.40138257098230   -3.73124278876604
H        -9.33305078828144   -4.58375794495008   -4.73372497671252
C        -9.36004835342450   -0.47448711598329   -8.82634066679871
H       -10.22692960225734   -0.64797221427984   -9.47757399210314
H        -9.31743106068286    0.59942143867885   -8.58606930321565

