47
CSD_code = OCAQEO | q = 0 | S = 0 | Stoichiometry = C19H18B2Cl2CrN2O3 | MND = 9
Cr        3.96636504300203    9.72704481268312   11.81839944589734
Cl        4.89494526616832   12.90041715332988   13.29068284631648
Cl        4.44453068985102    2.56717833928293    8.89404340801436
O         3.23501423599369    7.40864968896506   13.52780680833243
O         2.02139596911163    8.36838813553543   10.02617719999681
O         1.48277397545198   10.80099400487264   13.05742115571775
N         6.83626766867130    8.17473772964284   12.59299729217520
H         7.05263183171597    8.22470999303324   13.57730942825207
N         6.66743448508367    6.90250434013330   10.52528581634323
B         6.15345517684587    8.03120881052365    9.83785793845886
B         7.04099428826239    6.95502623237854   11.90229913415954
C         3.53394009503929    8.31344098916475   12.87119622507158
C         2.78619681624335    8.92390490680963   10.68946547734055
C         2.46270563946672   10.42938710121473   12.57383794960256
C         5.87521300785877   10.37903459537586   12.92869614255163
C         5.27047740749216   11.49672544040810   12.34402109141332
C         5.00271238758042   11.56501373023739   10.96142910961720
H         4.61068441002106   12.48232611524366   10.54157634076227
C         5.28488637378582   10.46385090844012   10.16373871177823
H         5.11253110452758   10.52476003353819    9.09646118225475
C         5.89843934369266    9.29651733743101   10.69147731119763
C         6.20453129215112    9.28137513972855   12.07702373428338
C         6.23811466255868   10.34046387874035   14.38815162315485
H         5.86396153191966   11.22638854078381   14.89364454989519
H         7.32257107186755   10.31092798787155   14.51733540632256
H         5.80105943590523    9.46869851152854   14.87605501005545
C         5.78781855356820    7.98212082062406    8.29709732966245
H         4.70873129252707    8.05796728017536    8.16679801985405
H         6.10533965944245    7.06318317878166    7.81102607343952
H         6.22640095104710    8.81079097647653    7.74308855653270
C         7.63276358422555    5.70314865674105   12.66969182515730
H         7.99206565595449    5.94557059290156   13.66693593410667
H         8.45199310396878    5.23672627037710   12.12703746277402
H         6.86842761356298    4.93549643202191   12.77972981759058
C         6.77256635733986    5.65470976955219    9.84956978175373
C         5.64982708699900    4.82834024999330    9.74789969796538
C         5.80486368753818    3.62355180385102    9.06619672348006
C         7.01329769006616    3.23556074446726    8.51235626136545
H         7.08811415347324    2.29317116401825    7.99367908950983
C         8.10990765728713    4.06955216258135    8.63132910863468
H         9.05594353386857    3.77905034031017    8.20142085487493
C         7.98862882142315    5.27504731604053    9.29681076852241
H         8.83395232025654    5.94032897241486    9.38964016154516
C         4.32769087547267    5.21538095186469   10.33163458149143
H         3.89891950973571    4.37841357911844   10.87921551859266
H         3.63083797105640    5.47910771373166    9.53680301218467
H         4.41967671091125    6.06790656706156   10.99924908199401

