47
CSD_code = OCAQIS | q = 0 | S = 0 | Stoichiometry = C19H18B2Cl2CrN2O3 | MND = 9
Cr       -1.29665257095715    4.39690476902612   12.64390717893217
Cl        0.55803592447906    3.18336984409905    9.79326085911495
Cl       -5.09936435032895   -1.18719954297725   19.00181003499467
O        -4.00517873350482    5.59337775991569   12.37895206691561
O        -1.16007726891365    6.40116256430228   14.83714078769309
O        -0.60405626952250    6.79015084591404   11.01729125396600
N        -3.48358156152636    1.82344708682342   12.68817004688010
H        -3.96073806231031    1.72927230866426   11.80395309380972
N        -3.52084494163620    1.82051360571830   15.12277760805698
B        -2.15424787954848    2.19540819150621   15.17157869759771
B        -4.21183397157061    1.63155411593410   13.88784548846147
C        -2.95676083930386    5.11393840582623   12.47602582298773
C        -1.18240928827172    5.59869042323809   14.00708844217750
C        -0.83702246240913    5.83795229227832   11.62686607005002
C        -1.60155807161558    2.53666543961384   11.33217579520769
C        -0.25484891878606    2.91886707490834   11.30193555336317
C         0.51614246320844    3.03621566250327   12.47554456495658
H         1.57367225806932    3.25312620834522   12.39770794403955
C        -0.09674320146896    2.83795283904888   13.70725237299156
H         0.49986771349324    2.89677763226764   14.60902392395826
C        -1.45339349791479    2.43009564974539   13.81126666143765
C        -2.18534247967629    2.26647098518694   12.60611458830400
C        -2.39987075887394    2.33193169754842   10.07338844896796
H        -1.82537021556149    2.64782282346831    9.20703833437422
H        -3.31914346291538    2.91797495549838   10.09479983998953
H        -2.65563702609647    1.27780125567814    9.94269787398710
C        -1.38855822693372    2.40865351937540   16.54314411224859
H        -1.98450196401566    2.14666251801352   17.41381063462492
H        -1.10614598852314    3.45531266193510   16.65268832499971
H        -0.46547374327449    1.83245532461885   16.59467288232481
C        -5.74387807333321    1.23510062520229   13.81433008264380
H        -6.36218339016588    2.12418930586268   13.93081778428319
H        -6.04090513071204    0.55259942645234   14.60708129145069
H        -6.01787332185569    0.78133326761788   12.86441259572327
C        -4.25729778360463    1.66262114862556   16.33001633280304
C        -4.28487986933724    0.41788157257411   16.96756670997527
C        -5.01999067835702    0.31805951843779   18.14424636801716
C        -5.70730633431699    1.39878676508136   18.67399630644211
H        -6.26670384915474    1.27986507762440   19.58834251003604
C        -5.66421887851348    2.61810467742747   18.02385792398219
H        -6.19425099142183    3.46385740645297   18.43284593398990
C        -4.94036576473471    2.75078316663878   16.85333640961401
H        -4.89009190217214    3.69590966270910   16.33499366992208
C        -3.52820429999086   -0.73298518975863   16.38063290590762
H        -3.74894691951168   -0.82462331815490   15.31838006463186
H        -3.78364061944932   -1.66171813906788   16.88134767083575
H        -2.45692479716565   -0.56189389174705   16.48346613233378

