98
CSD_code = OCATOE | q = 0 | S = 0 | Stoichiometry = C51H39IrN3O3P | MND = 6
P         7.46671713103097   11.29851879344950   10.42285126633385
Ir        8.68357824402251    4.81850224388457   10.13767057870527
O         8.51387123103706   12.22649980255500   10.87116940233727
O         6.72315534070533    4.12164461942825   10.89769986551890
O         9.22077501156907    2.67847532839654   10.27058435815869
N         9.13563227929937    5.25015993333566   12.03025246832703
N         8.32337230912742    4.37636283165660    8.21454968678030
N        13.51439012418021    7.34183837755389    9.86700247501659
C         9.59424263087228    4.36112453219097   12.90693790793132
H         9.74333929763453    3.35595390320257   12.53833264074372
C         9.88496440736879    4.67927168860287   14.21930539143260
H        10.25357467218833    3.92072099603717   14.89105529402014
C         9.69823720756008    5.98833550096003   14.64407725645587
H         9.92048513269099    6.27479057159410   15.66078633518684
C         9.22647893139239    6.91786635105572   13.73875845987167
H         9.07796791242716    7.94239513020895   14.03777521106270
C         8.94471777772323    6.53019212991033   12.42935314292055
C         8.45811092223543    7.40769635881565   11.37920506976838
C         8.25268266160357    6.77965859129980   10.12732083809668
C         7.82397844209985    7.56467964199338    9.05999513501539
H         7.66766850337482    7.11164659605158    8.09088820181260
C         7.60956955186652    8.92631104209311    9.21613019541709
C         7.80953650084566    9.51750445160073   10.47481799941945
C         8.22127812487137    8.77180276955293   11.55288500206852
H         8.36764770286826    9.25778817087774   12.50693776090013
C         7.20722969737615    9.87967665943913    8.18421611727459
C         6.94821717458702    9.60829857826815    6.84749775921632
H         7.02351031720301    8.59883346114741    6.47118727408202
C         6.59160066817574   10.64257646100828    5.99738587868023
H         6.39041109721728   10.43104865354654    4.95711107853526
C         6.49253033124044   11.94539090876424    6.46144367916513
H         6.21752766269097   12.73933089977135    5.78292124701014
C         6.74527753320705   12.22958415115385    7.79556648998317
H         6.67417802003965   13.23912750587730    8.17518442616610
C         7.10132867854314   11.20099656543227    8.64250792325471
C         5.86370527661538   11.54803291658060   11.23996766545758
C         4.78254782589133   10.71783492371673   10.97431263965089
H         4.89492900858374    9.89866469178851   10.27795548402417
C         3.57588100071811   10.94903432247511   11.60692591021429
H         2.72983742654017   10.30805354994746   11.40577867881786
C         3.44892386411541   12.00353961578396   12.49924162566269
H         2.50282466306911   12.18046273747819   12.98979890501712
C         4.52919403604774   12.82910389461427   12.76386364291236
H         4.42664781108301   13.64848660221498   13.46032082286531
C         5.73972904752169   12.60109553944302   12.13306807769906
H         6.60083685774212   13.22699598391857   12.31927564331155
C         7.18972797024297    3.84333911960252    7.76835236643675
H         6.36855756792922    3.80735698143884    8.47128784837665
C         7.03776074089788    3.36062199921974    6.48302915473861
H         6.09779602626622    2.93459121751838    6.17097850196295
C         8.12045815290411    3.43334225896760    5.61450178104679
H         8.04240166373794    3.05525440871295    4.60609501058576
C         9.29523617196040    3.99933632521560    6.06403383002660
H        10.15117347055273    4.06905744490877    5.41251197830439
C         9.38501050654431    4.47482471703656    7.37438458125809
C        10.54410538993020    5.11565495348814    7.95955373306500
C        10.41762840026851    5.42512939284732    9.33235429534504
C        11.44407725640222    6.11913221973209    9.94255610110438
H        11.38139302067444    6.38178774741775   10.98950506438336
C        12.57041629469461    6.53789771191870    9.23223599741588
C        12.70277638044420    6.18030761036136    7.88659271472762
H        13.57725237585742    6.49108904928343    7.33430206303506
C        11.70116413631639    5.47243334733410    7.26309561661113
H        11.80823939109235    5.22777363005128    6.21639961692483
C        13.06926526657278    8.28704712887222   10.80772690518772
C        13.78351313103609    8.50079446947545   11.98448320234189
H        14.68412900078469    7.93336643551762   12.17035742307905
C        13.33951531537374    9.43077703313725   12.90570461296539
H        13.89994430535737    9.58591393906132   13.81640325102064
C        12.18392900083725   10.15619120220621   12.66801679572782
H        11.84278249399870   10.88557099651570   13.38687809987007
C        11.47041775034116    9.94892628566334   11.49818350046353
H        10.58013662856996   10.52497819829870   11.29677892536402
C        11.90586986042990    9.02016556225991   10.57344716087956
H        11.34697093788903    8.85764452287581    9.66365387186823
C        14.87381040758440    7.23575159315302    9.56808526923954
C        15.43546014471494    5.99465353447167    9.26561097968884
H        14.80908199100835    5.11477740158832    9.27256835169787
C        16.78031023998650    5.89276858671555    8.96874919501840
H        17.20258790850866    4.92542400952560    8.73841577204573
C        17.58902279278834    7.01758951329098    8.97697294036647
H        18.64050284158941    6.93329109390058    8.74769386548075
C        17.03787168869283    8.25124861849575    9.28307500202815
H        17.65963873149963    9.13456339303837    9.28765137915661
C        15.69247600237617    8.36554848060720    9.57301155758967
H        15.26331127688535    9.33013577697974    9.80059951930943
C         4.98301933968933    2.75555244300260   11.73351832916866
H         4.47811798982630    3.71671851752322   11.79168098371518
H         5.02355358601477    2.30927338867358   12.72496942140513
H         4.41948394026887    2.08955499930181   11.08287155309748
C         6.39002808376799    2.94894561280392   11.19204791361590
C         7.16236123977857    1.79021260098414   11.06331198054569
H         6.69345925805605    0.85785321536008   11.34155245328808
C         8.48385951985009    1.72234563280858   10.61191161677787
C         9.09690950403417    0.33323459351012   10.54670451140925
H        10.13104698800665    0.40478002420012   10.21860954260916
H         8.53967451322762   -0.28479269593744    9.84546806611741
H         9.05842335515920   -0.14184522163593   11.52494288017514

