60
CSD_code = OCEBUW | q = 0 | S = 0 | Stoichiometry = C28H25AuClO4P | MND = 2
Au        7.54348666052055    7.61984445762072    4.13143651215761
C         4.40637161804222    7.50285436916698    2.50647120909945
H         3.99236119420643    7.57977196557001    1.49405686996747
C         3.89161498708159    8.60606472748627    3.39756326412937
C         4.29087575582601    8.60337014990302    4.71374515585182
H         4.89164904469634    7.78408935936063    5.08856013954160
C         3.95839454469999    9.64664975902921    5.58594719029991
H         4.30131485052056    9.60724945225759    6.60848546090765
C         3.23584091921319   10.70959035520187    5.12682669876536
H         2.99739444115008   11.53767714168231    5.77810249498930
C         2.78103351989333   10.74571022881042    3.79277741304720
C         2.02854547186012   11.84032806485719    3.31830851370823
H         1.81998361863502   12.65274118508854    3.99953295615357
C         1.56878185543806   11.87492393956103    2.03349234967991
H         0.99561496716937   12.71770821702204    1.67678259440025
C         1.82790841469243   10.79890303348648    1.17405009399147
H         1.43895150052024   10.81858594159925    0.16668823508107
C         2.56317310787259    9.72817997679089    1.59971085887251
H         2.72613103693248    8.91098556246192    0.91447251326157
C         3.08327722190367    9.67038897693757    2.91115040690142
C         4.06086749034990    6.11603846064637    3.06711150033733
H         3.40826244451212    6.18386032509102    3.94254408850488
C         5.31660323901087    5.37116866025707    3.47117846491020
C         6.35407112982095    4.01891897751325    5.06855448087885
H         6.84252208390502    3.44139240619131    4.28298405860487
H         6.01819635879935    3.37304601377853    5.87479066198943
H         7.05132974792714    4.77120177020906    5.44640685680905
C         3.33081417951991    5.25195164528680    2.03728348875469
C         2.28383238740414    3.18201519933558    1.72725509192357
H         1.38499125813876    3.65063077750235    1.32285662407379
H         2.02599343316881    2.32931662525950    2.34904526399466
H         2.92629158470420    2.87409264792689    0.90045894218385
C         6.83219301596537    7.28546166127826    0.72968245535207
C         8.13940318247278    7.66779993438693    0.43900266244369
H         8.67883922299593    8.27644169876488    1.15559485043417
C         8.73381173099539    7.27092352092939   -0.74255980393255
H         9.74794386993842    7.56804619939115   -0.96526922217602
C         8.02474118016968    6.48542164390842   -1.63829657266837
H         8.48663034382243    6.17037690512201   -2.56237467255324
C         6.72725466000123    6.09997062274565   -1.34726267100510
H         6.17726934771689    5.48554774073213   -2.04532516167652
C         6.12447804831151    6.49405831007931   -0.16416729270388
H         5.11409568302225    6.18135635734304    0.04983040285961
C         6.01149943484920    9.66601026484381    1.89549773445747
C         5.54368229911424   10.06398300526374    0.64779340049524
H         5.36397912746291    9.32413461987126   -0.12067705238325
C         5.31453195228346   11.40293388098196    0.39164288709026
H         4.94741163224271   11.70926309459637   -0.57680426352676
C         5.54779671727916   12.34969270598074    1.37541597735343
H         5.35732309913755   13.39344457756931    1.17489586832227
C         6.03393327916234   11.96011538673845    2.61231567491278
H         6.22757668225910   12.69749067449657    3.37691957287125
C         6.27125495994142   10.62297853335812    2.86876941967403
H         6.65311861422126   10.30459268671299    3.83110482223482
Cl        8.60279967011133    7.06521509525562    6.07294221768550
O         5.17716222711636    4.65608783257699    4.55989345522875
O         6.34543618750745    5.49281050693508    2.84173940481715
O         3.10766799997167    5.57622447780600    0.90273788103569
O         2.97541751359436    4.09387763714973    2.57617000565093
P         6.23096825055550    7.90419005273247    2.32245756596850

