80
CSD_code = OCECAD | q = 0 | S = 0 | Stoichiometry = C37H36NO4PPd | MND = 4
C         2.37189814730942   11.13075591164064    2.08714546214985
C         2.88159528770784   11.31733835118190    0.80831431552799
H         3.66839864348659   10.66998929192272    0.43427834659601
C         2.39142639586546   12.32182755552568   -0.01395418478467
H         2.79648222274480   12.44453530965963   -1.00815251858107
C         1.39275409226447   13.16696131374084    0.43502525111956
H         1.01172411085088   13.94947613044384   -0.20445110681124
C         0.88969149464131   13.01405791117165    1.71567886292928
H         0.11851736497198   13.67954669678796    2.07994724765972
C         1.37601534502009   12.00839839962781    2.53665609184789
C         0.86030797925846   11.80023147723298    3.93889295569673
H         0.51005273075833   12.74136905032935    4.39181856869109
H         0.01096459957683   11.10552256501651    3.90503103074299
C         1.38721305803067   10.52993003527999    5.93443039258268
H         2.19718305334894   10.01994915458579    6.45966661912949
H         0.64304185204448    9.78605843049283    5.63947659721529
H         0.91580734444389   11.25223674025359    6.61651217649525
C         2.90985992960649   12.19769483869381    5.14682790859023
H         2.47343742295977   12.92092431900261    5.85259989250575
H         3.26192881853029   12.73927119819709    4.26298123387984
H         3.75903278156860   11.70306951147763    5.62953998980514
C         3.73217880916469    7.96881989967414    0.64382347970876
C         2.36592848957662    7.98198753261646    0.37652530401514
H         1.68820297387997    8.37170292769560    1.13152185363910
C         1.89505345623523    7.52085146900349   -0.83718115580599
H         0.83510981108760    7.52584386932351   -1.04381477474618
C         2.78676621332364    7.05676254707156   -1.79199448925568
H         2.42061607191060    6.69740145624763   -2.74236234389906
C         4.14770366782898    7.05960890128772   -1.53385952686805
H         4.83986784667390    6.70516280686140   -2.28366129372188
C         4.62503917336722    7.51106923137138   -0.31596071963487
H         5.68635718037225    7.51582843317178   -0.11348670930006
C         5.95415942496012    8.99019099626222    2.33416735213642
C         7.03842775307902    8.13819940816680    2.14885841014682
H         6.88615985415683    7.08708917465032    1.95350018750828
C         8.32541200556757    8.63626723526279    2.25501949675881
H         9.16698870493511    7.97342448039816    2.11728588874061
C         8.53849218104525    9.97287554347837    2.55009587275904
H         9.54627156025735   10.35208961817399    2.63600889119428
C         7.46101569125033   10.82068499857305    2.75379433245385
H         7.62942449808128   11.85939322739771    2.99937710712579
C         6.17240992983646   10.33014045657548    2.65170890803209
H         5.30784903236168   10.98126378246834    2.82776221289517
C         4.24791716081822    6.81374190883454    3.15222868931515
H         4.85666511309641    6.18543067570277    2.48860328236809
C         5.00358250505724    6.88182658754192    4.45979888439747
C         4.77312832678151    7.91064697080823    5.36555396177399
C         5.33081166710063    8.99262615556935    7.37655591450012
H         5.52498902367003    9.94626532772195    6.87347826671850
H         6.04006944046461    8.85126157649905    8.18904566509250
H         4.30993202762626    9.00088274574773    7.77256946967724
C         6.04814910693172    5.90646886265975    4.57775473158333
C         7.73900174408063    4.93288365341312    5.86087547702427
H         7.36150814176310    3.92331406459077    5.67724759736748
H         8.13261080423655    5.01436371776234    6.87148660227884
H         8.52212823343483    5.14768665291617    5.12834007810112
C         2.84464692220828    6.24864597578323    3.19510260183861
C         1.79155248436876    7.01659591340918    3.63702162821787
H         1.96850559190474    8.01396485309873    4.05654689880718
C         0.46824036042558    6.55465368114796    3.58871179299695
H        -0.32918545248502    7.19315654647270    3.94349514083496
C         0.19001399067854    5.32252391685042    3.07395642023688
H        -0.82830745613797    4.96785671292653    2.99977469497182
C         1.23570372176261    4.48005131780239    2.64599388563476
C         2.58506715399787    4.92434164734308    2.73357961272756
C         3.60161088517289    4.01077535599885    2.37335299894103
H         4.63887562703095    4.27130999932555    2.51099216973138
C         3.29746912807853    2.76207286345045    1.90560030719021
H         4.09229975970921    2.07881517922580    1.64442228712052
C         1.96466989182814    2.35014946303051    1.76940857663385
H         1.74446717542952    1.36359725423380    1.38760143365685
C         0.95711339445205    3.19109617941762    2.14484109303861
H        -0.07601869622677    2.87954464020272    2.07548435976008
N         1.92435471246390   11.19142985456453    4.75117386890763
O         3.93961947604812    8.85106454032322    5.23866487659715
O         5.52760021569673    7.90900462610477    6.49949178364175
O         6.36989026663114    5.14172216146375    3.67287037963765
O         6.69498803199475    5.88013774749438    5.76742337600763
P         4.22029823424931    8.46222960410532    2.31922567947381
Pd        3.02876428159910    9.90005887842530    3.50413209632265

