51
CSD_code = OCECOP | q = 0 | S = 0 | Stoichiometry = C24H20N2NiO2S2 | MND = 4
Ni        4.62802558806446   -0.85964583227960   10.72921782114283
N         5.82976831247227   -0.73916254346433    6.62771052339768
C         4.74248422016517   -0.94615801407109    5.68051588596652
H         3.89585019481995   -1.35655121733599    6.23652134363532
H         5.06919630593171   -1.66873506506075    4.92832122122514
C         4.36288074210925    0.35985476516454    5.03051363333126
C         4.63816869608755    0.59776889363373    3.69144398320971
H         5.10190262526231   -0.17256078128794    3.09089844973487
C         4.31144173924056    1.81369903817793    3.11565536104172
H         4.52556510465751    1.98803240935564    2.07154425245917
C         3.71568376125719    2.80333476828538    3.87753345466765
H         3.46372750099784    3.75268167011795    3.42895223819433
C         3.44128140573502    2.57224996828543    5.21559111804198
H         2.97414202259997    3.34107067452596    5.81251530341838
C         3.76149197427437    1.35621333851042    5.79047819683799
H         3.54233453264015    1.17092084973894    6.83115088564391
C         5.60376237431296   -0.73687545703818    7.95071271775595
S         4.05481927966860   -1.00974159764303    8.63941494743785
C         6.66716617607927   -0.50600354418772    8.88918848651525
O         6.39449953792044   -0.53402892454371   10.13850462824122
C         7.94136294105625   -0.26149736927073    8.36576597067807
H         8.75931232137053   -0.07825460982473    9.04256773978153
C         8.12405274917833   -0.26035443713353    6.98740782780679
H         9.10100930786549   -0.07364936315497    6.57149316613460
C         7.07236932706261   -0.49780300087040    6.14228546134908
H         7.17348260698637   -0.50055927162469    5.07012279259877
N         2.05012327422327   -1.29556735613417   14.10090478002561
C         0.69975654213693   -1.65479160983703   13.70798640508088
H         0.41219023589090   -1.02977975228320   12.85820950577043
H         0.03104149538970   -1.45419018151903   14.54949527604050
C         0.62724074755497   -3.11178074413634   13.31295179256059
C         0.16231301036110   -3.48311134790122   12.05996499824145
H        -0.14663981918453   -2.72387878683413   11.35806954446569
C         0.10924069626826   -4.81944317166625   11.70451821334180
H        -0.25018692990388   -5.09881006189197   10.72561798469656
C         0.52592249205464   -5.79351472587766   12.59517047678533
H         0.49019747976867   -6.83581656123075   12.31515656272158
C         0.99585711247600   -5.42782784452297   13.84511803597590
H         1.32695387065462   -6.18295210918757   14.54264723672812
C         1.04557120749191   -4.09270984791154   14.20308143104335
H         1.42008545771265   -3.81256031938486   15.17781109559544
C         2.98574099715486   -1.13479226506935   13.15007774213435
S         2.62864055739176   -1.25597391117464   11.48020673627489
C         4.35049031336626   -0.83816069232894   13.48148658848065
O         5.18887803388290   -0.68726360875847   12.52743600243910
C         4.66930145015016   -0.73663327972062   14.83997753532971
H         5.68519895362667   -0.52129950906220   15.12674586540021
C         3.66846104752877   -0.91030154511085   15.78971461181560
H         3.89989605056595   -0.82705809883683   16.83953769567780
C         2.38056424549062   -1.18670773082998   15.41106631745673
H         1.58198013012685   -1.31752028579543   16.12252015567422

