32
CSD_code = OCEDEI | q = 0 | S = 0 | Stoichiometry = C8H16BrCuN4S2 | MND = 3
Br        5.55721231388984    3.19247351504889    3.43369243503935
Cu        5.55704779912134    0.86342303812034    3.43369075789183
S         5.96321958008441   -0.37627088946755    5.35075579112758
N         5.72670128051511    2.03555493775224    6.53163827820703
H         5.60962490305494    2.53790941141824    5.65498370462569
N         6.40805064641656    0.42048871886066    7.85134963260971
C         6.03487247930158    0.73527045714110    6.59739459582528
C         6.30803130975914    1.56359677996173    8.73702837193127
H         7.24634694261089    1.70521787854999    9.28122273498112
H         5.50468368818991    1.40711817205140    9.46763280598902
C         5.99832138179335    2.72287172600846    7.77561182677531
H         5.12774033422587    3.30665960755844    8.08347071723815
H         6.84920173506416    3.40298804616925    7.66103788288976
C         6.65102028893629   -0.89659715995296    8.35513529231509
H         5.86456074881737   -1.19747492664582    9.05363331599538
H         7.61367589504679   -0.92879417985899    8.86984036671373
H         6.66689538443895   -1.58725003840271    7.51452044320720
S         5.15128114148858   -0.37630287920958    1.51657131983974
N         5.38775480511253    2.03553832063223    0.33570528954102
H         5.50486746193937    2.53788134857112    1.21236014778038
N         4.70631345294303    0.42049432876915   -0.98398238197720
C         5.07958189179837    0.73525495420128    0.26995098194191
C         4.80635496119924    1.56359718407479   -1.86966368604455
H         3.86804786154153    1.70522648846004   -2.41386647715405
H         5.60970527362736    1.40710142018596   -2.60026131112464
C         5.11607238731022    2.72286638654578   -0.90824706295268
H         5.98662946923745    3.30667999931957   -1.21612513478415
H         4.26517578292132    3.40295386211135   -0.79363182381152
C         4.46336725666427   -0.89658673424597   -1.48778525636392
H         5.24981763729755   -1.19744192281910   -2.18630154292281
H         3.50070724132827   -0.92879220118022   -2.00247656087442
H         4.44751666432522   -1.58725564972792   -0.64718545445312

