71
CSD_code = OCEDIK | q = 0 | S = 0 | Stoichiometry = C34H28N6NiS2 | MND = 4
Ni        9.31292157024784    0.06163127414591    3.49664783310371
N         7.58527532149241    1.18288581808797   -0.36228868015960
C         7.05733093246717    2.46638223291239   -0.55100901707085
C         7.67210378372714    3.60521469382437   -0.04400011829069
H         8.59238226448749    3.52846449958232    0.51012898440335
C         7.09991202839258    4.84546270569830   -0.26409325052711
H         7.57991610659097    5.72605581411997    0.13563479711880
C         5.93138360659392    4.96367962615436   -0.99607732715131
H         5.49229811815058    5.93565471175485   -1.16374422505223
C         5.33223191141212    3.82897231490792   -1.51935654107368
H         4.42424462157894    3.91344078330937   -2.09784902423212
C         5.88814902764955    2.58458311483851   -1.30006372431954
H         5.43769292993210    1.69165638936933   -1.70297579179196
N         7.27043946970739    0.22294087153529   -1.26657972599586
C         7.86961010404259   -0.87788226398215   -0.90242350838154
C         7.73802496763154   -2.14475224564615   -1.66462275826953
H         8.71678001410206   -2.49403763898676   -1.99156755579573
H         7.10949382244113   -1.97823102742375   -2.53435875116167
H         7.29082955113687   -2.91638443634320   -1.03854829009087
C         8.59219872030116   -0.67281765441354    0.30873979004840
C         9.41650496229396   -1.56555646400482    1.00769442185083
H         9.71733745578615   -2.47822837491084    0.49203051600661
N         9.87115375282314   -1.30498081783421    2.19177321969804
C        10.75767076502975   -2.15267141534209    2.85735925068627
C        10.73343777013846   -3.54270731149082    2.75694424215905
H        10.01503282340953   -4.02764410043734    2.11212773895034
C        11.59824873415332   -4.29909986661316    3.52676914701974
H        11.56819271991914   -5.37663395154244    3.45465029679417
C        12.48705752407549   -3.68972728160006    4.39713088562351
H        13.14970915725796   -4.29176153749575    5.00057793471059
C        12.52253629636185   -2.30638950025455    4.49518331974989
H        13.21391955750302   -1.82768990468217    5.17278556767104
C        11.66795721900449   -1.54199195446659    3.72885353714901
H        11.68907348855160   -0.44929814030466    3.77489858751005
C         8.36534742931873    0.68896171950710    0.63459102891484
S         8.96081769150575    1.58227121479293    1.95413367781585
N         8.75463212243492   -1.30496586781665    4.80148548975421
C         9.20929057166253   -1.56555858590128    5.98555446569674
C        10.03356609619538   -0.67281608636593    6.68453719288631
C        10.75611791147109   -0.87788157637092    7.89572303560331
N        11.35532237002562    0.22292762858241    8.25986986573579
N        11.04047732290609    1.18288377724890    7.35559513618055
C        11.56842307360096    2.46637821621318    7.54432968275476
C        10.95363212840402    3.60521444076752    7.03734504503543
H        10.03338521495604    3.52845715494202    6.48317115546094
C        11.52582803043209    4.84546439870689    7.25744173010693
H        11.04581605017199    5.72606026785321    6.85772477606220
C        12.69438426855194    4.96367634566688    7.98939918659157
H        13.13341030326372    5.93565675161178    8.15714666107306
C        13.29355922175281    3.82896350011965    8.51264413476853
H        14.20145360876248    3.91344328913816    9.09124190120921
C        12.73763632556686    2.58457366103628    8.29335181798421
H        13.18806411006713    1.69165267360529    8.69629719045878
C        10.26038610570855    0.68897686096467    6.35872201675701
S         9.66493964157479    1.58230374203589    5.03917998621241
C        10.88767063650202   -2.14474780669637    8.65793276807211
H         9.90890520357821   -2.49401837391972    8.98486127470014
H        11.51618838655034   -1.97822965290664    9.52767956691418
H        11.33486796898786   -2.91638674533752    8.03186825954320
H         8.90840679891680   -2.47820891894894    6.50122993411074
C         7.86809471653857   -2.15265920742497    4.13592111300679
C         7.89235887982084   -3.54269778107326    4.23632468321694
H         8.61078905752779   -4.02762310683268    4.88112288361510
C         7.02755711914396   -4.29910761097741    3.46649644614972
H         7.05756621194094   -5.37663781556005    3.53868758464403
C         6.13869167028793   -3.68974796894033    2.59618375750724
H         5.47597059854597   -4.29178794330620    1.99282812074881
C         6.10316340792984   -2.30640980098972    2.49816125395258
H         5.41175446050804   -1.82772250328626    1.82057474156006
C         6.95775765853006   -1.54199627248842    3.26446252087129
H         6.93661652802996   -0.44930098009254    3.21840813356292

