38
CSD_code = OCEHIQ | q = 0 | S = 0 | Stoichiometry = C10H20CuIN4S2 | MND = 3
C        -1.32131404418882    1.66831655891361   22.31595767222781
C        -1.16673383311801    3.56240537291890   21.00777578730922
H        -1.04139027438958    4.60392118195192   21.31589141769520
H        -1.68402063441603    3.54446638903177   20.04122288946375
C         0.16303173132105    2.79345812002260   20.95374148516542
H         0.48186451783031    2.57019866088830   19.93335923353158
H         0.97067206192149    3.33334888346539   21.46081704041402
C        -3.27395261682071    3.17927199548389   22.35941314266194
H        -3.47712660963019    2.73274113032305   23.33576294070342
H        -3.32886162345459    4.26799382377232   22.44721527981094
C        -4.29549761988650    2.67042006263536   21.34509851767176
H        -4.12318580648056    3.10678488026206   20.36381252614305
H        -5.29794554457101    2.93281790861203   21.67014721141119
H        -4.22733780877629    1.58837981568671   21.26705787647492
C         0.10640941442818   -3.97785709636131   24.86267572161325
C        -1.07798535186194   -5.63691482850087   26.26692941552564
H        -1.96423021115004   -5.08712725395250   25.94137420685527
H        -1.22426064149946   -6.70210181236520   26.06216609921123
C        -0.85369669822983   -5.40662668596273   27.75947259276598
H        -1.72255601445379   -5.74235694867172   28.31784627982991
H        -0.70574416614609   -4.34695580051375   27.95043515580456
H         0.01808216451251   -5.95278819851269   28.11245224006463
C         1.23692115650740   -5.94918165491019   25.28655771518028
H         1.00613061731600   -6.87662223199092   24.75002366298012
H         1.68219515751291   -6.21059949230672   26.25118768161387
C         2.13707054803900   -5.01027210697430   24.46412287795929
H         3.02713690486186   -4.69637241413009   25.01918949562028
H         2.45937874104595   -5.45953709694315   23.52088564907980
N         1.27024905493156   -3.88113445077711   24.20962620364967
N         0.02734387171597   -5.17233859124903   25.47465729005030
N        -1.92437366965628    2.83113600689949   22.00537391455908
N        -0.15633114900288    1.57063909212869   21.65955992604836
S        -1.11470566135100   -2.84010965667390   24.90128495070167
S        -1.98153619789283    0.53623943887258   23.34853965673666
Cu       -0.27262898156736   -0.98205640266474   23.78213628593240
I         2.15253238700793   -0.63078643900613   23.16711733894834
H         1.61071850850969   -3.00977163298591   23.81371810473272
H         0.56737832109418    0.91457147358350   21.94079451384807

