50
CSD_code = OCEKAJ | q = 0 | S = 0 | Stoichiometry = C22H21ClMnN3O2 | MND = 6
Mn        3.12644369560311    1.44188333572470    3.77975809280416
Cl        5.04716136240790    2.37267734740170    4.53028420497696
O         3.55750112737085   -0.20676539886311    4.30970997331382
C         4.02405432382829   -0.63302373549987    5.43613791771042
C         4.79351323686169   -1.81513357096204    5.49772347395748
H         5.04923411250028   -2.29778446776842    4.56605962510261
C         5.23143541607180   -2.30845186274142    6.69968095283817
H         5.83945181953767   -3.20098382394095    6.72232086032047
C         4.90077656967313   -1.66811093251569    7.89772963384120
H         5.24970531973740   -2.07157460486182    8.83591358978298
C         4.14253633759308   -0.52567736516713    7.87332038359356
H         3.88866238285639   -0.02119083001823    8.79499983042730
C         3.69693017068129    0.02786895236904    6.66111817485978
C         2.93254936291889    1.22442033628738    6.65645738423853
H         2.70893280461219    1.64787163875894    7.63739504482154
N         2.48753899447365    1.83957454461053    5.60018805725567
C         1.73895520572777    3.06372220469977    5.83357197073610
H         1.97533808797929    3.48963001120638    6.81660451824318
H         0.66407270418200    2.83495791292809    5.81540830723936
C         2.11289366331237    4.06560486379732    4.73881602059758
H         1.43682115927295    4.93237161475115    4.74533780975600
H         3.13981963270177    4.39649003531963    4.92040502504832
N         2.09758173517478    3.37736907195854    3.44606953446678
C         2.78076656140563    4.18165466766566    2.41059995927696
H         3.82193401146010    4.31149132104386    2.73181180503637
H         2.30008057706719    5.16783304325394    2.32841500065109
C         2.74931941201911    3.47133699600430    1.08479061545105
C         2.19544661779666    4.01857401412688   -0.05502703428929
H         1.77464574205394    5.01493840724972   -0.01510824510234
C         2.17993983466545    3.31036329482462   -1.24651094824472
H         1.74315203588730    3.74783928084577   -2.13096826757059
C         2.73354816217704    2.04102196545741   -1.29219058422747
H         2.72736907958100    1.48555290448865   -2.21902462473277
C         3.29099770892612    1.47115184275130   -0.16679164600337
H         3.72432776036624    0.48253429284281   -0.19598494561637
O         3.83880559092926    1.67945442720034    2.13307012009376
C         3.30735346902283    2.17010531968937    1.04984599692415
C         0.72277831923046    3.08316687393481    3.00097580987160
H         0.35666716783593    3.86433873544275    2.32407926924867
H         0.05650297771638    3.04816259696455    3.86842589931457
C         0.67750810585110    1.73961842951706    2.32751108622835
C        -0.14091303407123    1.49276534054617    1.23939624678685
H        -0.75396741986540    2.28596120903608    0.84095621005850
C        -0.14439211292472    0.23218226397713    0.66153376461054
H        -0.76016389104819    0.02066295767631   -0.19801923949356
C         0.66966250648380   -0.74131121667185    1.22045716877945
H         0.70242272049225   -1.74002723207743    0.81540337187508
C         1.45548352257527   -0.41502984247170    2.30831038019603
H         2.09990790033890   -1.15237718298330    2.76945536091575
N         1.48130744895010    0.80209001218544    2.86077708402910

