108
CSD_code = OCELAJ | q = 1 | S = 0 | Stoichiometry = C42H58N5O2Os(1+) | MND = 6
Os        0.80301478956430   12.20426090277156    7.08871382122179
O         2.84416104269844   10.29108617532869    7.60839447503099
O        -0.80125134656196   13.81757735256389    6.67428943281286
N         1.30225099506102   13.46886515373088    8.63094019197530
N         1.92251928387725   13.36437235725609    5.81321103129122
N        -0.00869292111502   11.24254594384345    5.46922451618960
N        -0.61972428433648   11.33905435247532    8.28769524358461
N         2.00860060865758   11.06808615416103    7.39686692218017
C         0.86949506875882   13.37229665318041    9.92204897259890
C         1.54960819322931   14.35029290392323   10.73444579214608
C         2.40793866802730   15.02188151171119    9.90763945739751
C         2.24573833522640   14.45543236740455    8.59158614876397
C         2.93519835228537   14.86082368861669    7.45915888496336
C         2.77753133060225   14.36511818794763    6.17407249352621
C         3.48185227506957   14.84307744239652    5.00966187822546
C         3.03358833325527   14.10604304790061    3.94834250670410
C         2.05845189588700   13.17914387746089    4.46845889228643
C         1.35471019447229   12.25592933118459    3.71134469338002
C         0.38723915349886   11.37596204896306    4.17050956455308
C        -0.36787654521806   10.47074377075663    3.33942280143889
C        -1.21797617461921    9.79116531721084    4.16769036307556
C        -0.97857430479216   10.28277298280633    5.50198377795902
C        -1.65173477427686    9.86076587164817    6.63833114970467
C        -1.49340672025430   10.35704232329143    7.92296716011479
C        -2.24262343977188    9.92270434950405    9.07632471117829
C        -1.79277655373135   10.65814982293845   10.13782469227287
C        -0.77522120786126   11.54397674974935    9.62760439736509
C        -0.08072051868223   12.47508370750241   10.38403190466784
C         1.29716330045667   14.57222063459624   12.18607956409153
C         0.03743844959293   15.41429488575233   12.40909003512335
C         3.32584497301127   16.14725291828466   10.24194451122099
C         2.71463906150216   17.50001985751110    9.86559431865658
C         4.47124974777918   15.95737536530303    5.01181245025583
C         3.77676753002066   17.32231563698197    5.00701804238006
C         3.41390005982874   14.22344380495664    2.51243560161016
C         2.38953721709672   15.05071417872963    1.73020934383289
C        -0.24087545453265   10.37025253323766    1.85829442709114
C        -1.01524336404713   11.48991242679973    1.15661002443567
C        -2.24456431818628    8.77220190614709    3.80940189004010
C        -3.64044636867557    9.39622274324379    3.72013712049449
C        -3.32026377719669    8.89380325984948    9.05216317770841
C        -4.64379705175265    9.48611136864827    8.55950278997287
C        -2.25026130691523   10.61200479061129   11.55526120949447
C        -3.25349141737017   11.72807409374300   11.85788305675992
C        -2.09243818868042   13.70747923766517    6.06844830748062
C        -3.16645935875542   14.40181348828882    6.89645206344086
C        -3.31675091694582   13.77314520690748    8.28175718156788
C        -4.29596174538960   14.53608862104188    9.17504670886565
C        -5.74033196904780   14.56312747729268    8.67134068428285
C        -6.37783605484586   13.18139672823015    8.58943945162215
H        -0.64404629086780   14.75013691502872    6.88567597383252
H         3.66527453394586   15.64359805942003    7.59063242494719
H         1.57551612967666   12.22551337530552    2.65614308190820
H        -2.37891924498377    9.07510137385233    6.50733439125724
H        -0.30703178617240   12.50921328665472   11.43792283961203
H         2.15082708583110   15.08625719121708   12.62890231369057
H         1.18773685784097   13.61176659139802   12.69354891199295
H        -0.13712638660861   15.55160224974382   13.47271205241817
H        -0.83456776608456   14.93114746937372   11.97356183405926
H         0.14974830062145   16.39372648451015   11.95057040094250
H         3.53490707864810   16.13823485563770   11.31216289159559
H         4.27450930705400   16.01799120388982    9.71725083368856
H         3.40405845973380   18.30291824723131   10.11186559360517
H         1.78860502715727   17.66325347727667   10.41143502444380
H         2.49693655838231   17.54487716599545    8.80066176244546
H         5.10603444429443   15.87967792392557    4.12853857869070
H         5.11398418020465   15.87914936655540    5.89091729519218
H         4.51652108624493   18.11811863014680    5.01677026093947
H         3.13533597367664   17.43454930307401    5.87844950859370
H         3.16449455737900   17.43359263164439    4.11551613715090
H         4.39074331347412   14.70181085106433    2.43373474340324
H         3.49401860854485   13.22913128280122    2.06877366813500
H         2.67769297039711   15.11094121487905    0.68427246098855
H         2.33273992940098   16.06041259281231    2.12936023101646
H         1.40028675531821   14.60258489439972    1.79254865497928
H         0.81161198764055   10.42123099671713    1.57273244827338
H        -0.62898638666186    9.40722434044513    1.52496329635217
H        -0.89808911318856   11.40765905339749    0.07951855260001
H        -0.65471840515323   12.46669760243915    1.47161007503295
H        -2.07448841650448   11.42453958485430    1.39289588335152
H        -2.24952192132664    7.97367964903295    4.55393977681426
H        -1.99313504016612    8.32676017882233    2.84643269939330
H        -4.37394374175325    8.63675036272584    3.46367255283638
H        -3.66301940642439   10.16804144252743    2.95472310813224
H        -3.92574472358234    9.84727544412616    4.66816538075485
H        -3.46323118152778    8.49429128771637   10.05667936002445
H        -3.02758494278480    8.06568600059605    8.40372734282635
H        -5.41424333107592    8.72014046142062    8.54277691935680
H        -4.53756677201663    9.89098469545496    7.55511012505546
H        -4.97005335673268   10.28607448717913    9.21926887856814
H        -1.39163889790120   10.70359174104737   12.22337681348631
H        -2.72190751516985    9.64849669403442   11.75168750895217
H        -3.57240719993092   11.67411659871243   12.89533535553843
H        -4.13030044434665   11.62979545328555   11.22259595824375
H        -2.80858789579072   12.70495265746069   11.68171189582743
H        -2.30250916490050   12.63817881441100    5.99124263961471
H        -2.04957915093427   14.13339549181882    5.05690347545117
H        -4.10604608939862   14.33377282495743    6.34881325006250
H        -2.91808159334798   15.46254654508042    6.99997902920055
H        -3.64004513238935   12.73649488054545    8.17592300607985
H        -2.34000052301780   13.75826498449659    8.77477382224565
H        -3.94566029585529   15.56575807872560    9.28382045264335
H        -4.28449311839604   14.07990653242878   10.16681359794978
H        -6.32282008319927   15.17633768579746    9.36158405713295
H        -5.78763477069809   15.04618153365185    7.69406184396763
H        -7.42662864217268   13.26936494539918    8.31839314979688
H        -6.31838948794727   12.67808121654541    9.55205423906180
H        -5.88977370235680   12.56139558426209    7.84134379879112

