53
CSD_code = OCEPER | q = 0 | S = 0 | Stoichiometry = C23H24N2O3Pd | MND = 4
Pd       13.30711670461284    0.43098650564313   15.15418432999433
O        14.91192265722414    1.63373399890504   14.91373900437810
O        12.78388724665126    1.76625080068354   16.57335212096729
O        10.90240800552884   -1.98740782517442   12.30266646766908
N        14.07992295216188   -0.87360984377292   13.78955807895172
N        11.68485260240091   -0.71020071104865   15.60506488623573
C        17.07878306903489    3.01729665004108   15.89806188622145
C        18.09488548552798    3.90747622293675   16.18587248173613
C        19.22889591658207    3.94353977205873   15.39128916530496
C        19.33506540281860    3.09145281944693   14.30468698189516
C        18.32167380883948    2.19482479498697   14.01740836078848
C        17.18606478539881    2.14144987401296   14.81969951935029
C        16.05456131228165    1.20503905975735   14.57048711404069
C        16.32788407229367   -0.03537758947241   13.99657759582264
C        15.37547877998219   -0.97773279612538   13.57786888926293
C        15.91219314869628   -2.14483963596938   12.78478080557979
C        13.19493315193365   -1.77629591428505   13.09072760969119
C        11.73475602162180   -1.32452515005044   13.22856197199539
C        11.18388212453742   -1.64097015986865   14.62060375838194
C        10.06354810407177   -1.71452441109032   17.13384464267035
C        11.09971858218770   -0.67525478857496   16.78295738496061
C        11.33243381899660    0.30835479715890   17.75862865610732
C        12.09408393695412    1.46197331728920   17.59391624234820
C        12.13115314592822    2.45381690260754   18.70496855703908
C        11.04771211114937    2.69340913639203   19.54466617848884
C        11.14705947679051    3.62913132316870   20.55853058552932
C        12.32387671987879    4.33502874753483   20.74684242957073
C        13.40219760642548    4.11272987521571   19.90607940445130
C        13.30377498585811    3.18356259291679   18.88869453250074
H        16.18398130378450    2.98118242504621   16.50105782941395
H        18.00383437493745    4.57692508351921   17.02857475572753
H        20.02513116667123    4.63929791049914   15.61254844308355
H        20.21171492134630    3.12965041960174   13.67435623215106
H        18.40550967636497    1.55387493734704   13.15295747138431
H        17.36238843331145   -0.27702936794179   13.81529899911055
H        15.51927126518734   -3.08492537409869   13.16908018065466
H        15.62098818003463   -2.06145076319731   11.73750000862973
H        16.99606240747861   -2.17367877775495   12.83373054721188
H        13.28043260569093   -2.80623262635870   13.46686214070365
H        13.44335996040633   -1.79310746938487   12.01791130488109
H        11.69338283730142   -0.22024029215206   13.08131312882325
H        10.09075819667916   -1.57760220240710   14.54340291977735
H        11.44095825736964   -2.67926348240641   14.87265418554926
H        10.43976029418694   -2.71666823386162   16.93549102821045
H         9.79059446219414   -1.64413042825560   18.18207241461143
H         9.16405172900861   -1.56969965280254   16.53560731625226
H        10.84088083877196    0.17582062853641   18.70862984571288
H        10.11755203661471    2.16694592298381   19.39208774553536
H        10.29983222631538    3.81266049546543   21.20362316320081
H        12.39688752679951    5.06196612455108   21.54265422279401
H        14.31901684633558    4.66724672190826   20.04446122095193
H        14.13233501419219    3.00197235038702   18.22040736025759
H        11.19118970264731   -1.77643271455251   11.40809789344078

