82
CSD_code = OCEPIY | q = 0 | S = 0 | Stoichiometry = C33H44Cl2NPPd | MND = 4
Pd        1.62117101699813    3.02183553929344    5.03615923083998
Cl        2.42313095347882    4.35998074230752    3.33715641800868
Cl        0.51197373130114    1.86592150296102    6.71022196071152
P         2.44267683821827    4.66113372907734    6.33168441734229
N         0.91055984392319    1.42663574260822    3.74654070900761
H         0.36412949969770    0.96754120760642    4.48694592510360
C         2.09788119506901    4.58806330379375    8.12190871149632
C         1.33069451014665    5.57183607789084    8.73965894871713
H         0.98652690539374    6.42092888441977    8.16582615824089
C         1.02491378999885    5.48992489725216   10.08423760160764
H         0.42788698555507    6.26043645900017   10.54964118782904
C         1.48336563360432    4.41511197050914   10.82660630206268
H         1.23964844414472    4.33628276862951   11.87580934311163
C         2.25877599702343    3.44308604986874   10.22189368367095
H         2.62028036435332    2.60855251466174   10.80590486060651
C         2.58267541548102    3.51041955623311    8.87271439841347
C         4.26722188397024    4.74376693378648    6.28321400965345
C         4.89553539346231    3.81871629061637    5.45054343700249
H         4.27966924818434    3.15134439922687    4.85114847923429
C         6.27185960976490    3.75090696834890    5.36272357009934
H         6.74137374641861    3.03497709321432    4.70487494422399
C         7.04308767679456    4.61056207546911    6.12617338452370
H         8.12082578643740    4.57373966820271    6.06792120535639
C         6.42848932610899    5.51604943946475    6.97118785788709
H         7.03460358560427    6.17862316447278    7.57312591564394
C         5.04396318977737    5.59905072441828    7.07463333597799
C         1.80054518899470    6.25997267799201    5.74094039631803
C         2.69027014007264    7.22328078397966    5.26994158478609
H         3.75241734209812    7.02882998226306    5.30177721628324
C         2.23029265215183    8.40951246419767    4.73245904734069
H         2.93385770469369    9.14569563160232    4.37357001745613
C         0.86814086959925    8.63909242461010    4.64209117343847
H         0.49872443935139    9.56252349332759    4.22111625820810
C        -0.02030264680394    7.66956348674459    5.06800192299731
H        -1.08355565350067    7.83796819441088    4.96784665289197
C         0.41957768733906    6.46746228784960    5.61079790638455
C         3.45556913264625    2.45916526514670    8.26506067737299
H         3.40390795115611    1.54064205276278    8.84546624071997
H         4.49365736190487    2.79473570215674    8.23983325482096
H         3.13809107032674    2.24029182599639    7.23998359535699
C         4.45238062043455    6.57354421108722    8.04602000719169
H         5.12208132426769    7.41968595460997    8.18798331427443
H         4.31056650709377    6.09064429028924    9.01399191071088
H         3.48773048896890    6.94273541694572    7.70941743599976
C        -0.59262425868219    5.44462331267942    6.02941871084568
H        -0.89856766345184    5.59817771273044    7.06479141264679
H        -0.18877579312975    4.42521733856148    5.95453375880446
H        -1.48186689021707    5.52006955879675    5.40538419550458
C         1.96694606080661    0.47818744909931    3.35079566672162
H         1.51464995923208   -0.45351768068291    2.97289701235564
C         2.79007922988535    0.14042252775720    4.60119678190997
H         3.20491943947633    1.08043929899901    5.01363776278568
H         2.14084574721660   -0.30461519953939    5.36069782539583
C         3.94270562973069   -0.80276298278055    4.27800483270149
H         4.50923748643139   -1.01237347942725    5.18726686190275
H         3.54644577871631   -1.75052293105949    3.90500255211228
C         4.84878872420057   -0.17974943756998    3.22231058510394
H         5.67154396798464   -0.85729188473762    2.98600018723694
H         5.27563747485075    0.74753530123028    3.61105682552991
C         4.04314157607494    0.12270005949988    1.96447156477216
H         3.65686824216122   -0.81289301231825    1.55065469569665
H         4.68465172053291    0.58064044362664    1.20960921756421
C         2.87981425569786    1.06184984319469    2.27034294132733
H         3.25806724310332    2.02948090504750    2.61246879801700
H         2.31547922084483    1.23108572829917    1.35193908411138
C        -0.04232143611672    1.84984686208629    2.71134728992665
H         0.52316298962870    2.27883670687051    1.87679002774985
C        -0.93836204970132    2.94762185583095    3.29878363981281
H        -0.30817593752707    3.80495463121330    3.58662675481635
H        -1.44807085330144    2.55854878969337    4.18868844485580
C        -1.97252075626748    3.41864953626228    2.28126495694362
H        -2.60654590026891    4.18542027543050    2.73060932031949
H        -1.45905504622748    3.86779734737022    1.42812466733392
C        -2.82655778086705    2.25022784902438    1.80159800475900
H        -3.38044365989142    1.83222958413880    2.64542447486830
H        -3.55178891073259    2.59546122963555    1.06239556671213
C        -1.93723943648164    1.17186934685294    1.19348827290287
H        -1.41985843541114    1.57900040205907    0.32156635699154
H        -2.54480298266104    0.32863514381830    0.85836979972882
C        -0.90708796659798    0.68697965466604    2.20988737801588
H        -0.28057398831096   -0.07765474473655    1.74597749335417
H        -1.42241775230844    0.23319880907056    3.06162166897368

