60
CSD_code = OCEPOE | q = 0 | S = 0 | Stoichiometry = C27H27Cl3NPPd | MND = 4
Pd        4.52322209858920    2.23748212596595    0.34717882906322
Cl        6.17374147315339    1.17002928769519   -0.83741468175680
Cl        2.83615622785596    3.20430219854850    1.56176676812283
Cl        6.40928115086666    3.46596590015129    1.87482579038172
P         3.75004409236228    3.39124661359627   -1.38187841924605
N         5.07264908704311    0.87938921354886    1.97949640121961
H         4.55054711329098    0.00408963329263    2.03202935362772
H         5.99961259539487    0.70837713704696    1.56516179160741
C         5.11866552835398    1.54518121520008    3.22360112736098
C         5.74936407962953    2.78962224475413    3.31814473711013
C         5.79398948248175    3.48032656818194    4.51432960980158
H         6.28091527790510    4.44104718094348    4.55482002276164
C         5.19520635412022    2.93591290569583    5.63808933925791
H         5.22317676637541    3.47427439762523    6.57226716104034
C         4.54754416760569    1.71533523174293    5.55675440708324
H         4.06595938375309    1.29764936602320    6.42738853107021
C         4.51202179976411    1.02296052701349    4.35995670129271
H         3.99678635569858    0.07496552278441    4.29561198638943
C         3.37073555464490    5.10683753951069   -0.94517264847772
C         4.39240501785427    5.80097818457927   -0.29802675666883
H         5.33803861099511    5.29647382798213   -0.11687514535921
C         4.19764642012811    7.10238382583884    0.11283033642037
H         4.99195684356487    7.63475973977231    0.61661855794212
C         2.97676573916452    7.73665817310030   -0.10375582176110
C         1.96024256745610    7.03135966032617   -0.73385721862248
H         1.00277777526134    7.50695753768924   -0.89350911267229
C         2.14680707647823    5.72479319054787   -1.15062224777881
H         1.33681864467914    5.18401385145196   -1.61778889652904
C         4.75071862627555    3.50696100311277   -2.89313271592143
C         5.37089053249193    4.67535465312823   -3.31462808339879
H         5.24184237204836    5.59070738039406   -2.75380209046323
C         6.15187031982159    4.66880030623590   -4.45706801559362
H         6.63044374316620    5.58360287038152   -4.77758099636632
C         6.33632584573678    3.50503070562205   -5.19099129529906
C         5.71114923589523    2.33739521102204   -4.76006025577720
H         5.85085597970146    1.42306626358250   -5.31883104144781
C         4.92895531820446    2.33447406100882   -3.62546810586747
H         4.45630256654543    1.42160954207618   -3.28631885053935
C         2.23790187335208    2.60656418411833   -1.99644423005609
C         1.59577066700165    3.06772873135100   -3.14306378478088
H         1.99786854964549    3.91837302184179   -3.67750504379903
C         0.46044756276474    2.42828360278987   -3.59866292535782
H        -0.03916005443346    2.79065965834781   -4.48612605694687
C        -0.04955536083742    1.31569835936287   -2.93439093568907
C         0.61113028962090    0.84910493819968   -1.80439676044007
H         0.23214793587243   -0.02115512247295   -1.28788089374477
C         1.74712567461656    1.48448537953405   -1.33820833936230
H         2.27045767890095    1.11497530541320   -0.45236249091373
C         2.76475156678905    9.14252952029294    0.36676824891133
H         1.88596592004924    9.58185896765445   -0.09845423854465
H         3.63183071263243    9.75996251336684    0.14007574223261
H         2.62096453713389    9.15328916947874    1.44726536771271
C         7.18097546977032    3.49238045120163   -6.42741564383787
H         7.71681098872851    4.43075317105844   -6.54491111451927
H         6.55589530159593    3.33842923115086   -7.30712734166361
H         7.90207345542830    2.67801021958501   -6.38637562703635
C        -1.29331162386300    0.64679256620258   -3.43203507326008
H        -1.28084699080907    0.56719335441921   -4.51722117379788
H        -2.16787858192377    1.23402435910897   -3.15084584832832
H        -1.39969739640925   -0.34721637916925   -3.00537088877474

