38
CSD_code = OCESIZ | q = 1 | S = 0 | Stoichiometry = C15H18N3NiO(1+) | MND = 4
N         0.99520680905018    2.75274580275045    9.90172503253008
H         0.37735645016728    1.93629476056365    9.89417395583367
H         0.39672826112022    3.56019107334376   10.07733940537689
Ni        2.36079866454213    2.34431875786833   11.35131873837816
O         1.17437355855016    2.46906740300686   12.67909952852142
N         3.61939892195663    2.23420230724704    9.88914241729798
H         4.06455004360250    3.15329183371397    9.80068961064340
C         1.31132969204179    2.24845064157849   13.94490345144579
N         3.71439810667449    1.79574296364368   12.45862497450804
C         2.57912212083013    1.65278436224743   15.99426831517600
C         3.66114645114953    1.64468174124663   13.75305519445825
H         4.57439419633821    1.31714608123608   14.24197460654895
C         2.53066528049266    1.85320044070459   14.56418609687701
C         0.19480983722857    2.20501094902237   16.09132464943417
H        -0.69746759708332    2.33247329708199   16.68653869970132
C         0.14849170034165    2.40874507667508   14.75201124617482
H        -0.76111230806038    2.70096809382718   14.25149838970275
C         4.65161074054441    1.26462522504567   10.28934287454824
H         5.54572680207899    1.32561461921542    9.65915377478763
H         4.22754410363528    0.25998071457083   10.20384197751409
C         3.74420463749699    1.29598425808295   16.69096102799294
H         4.67891732534286    1.16054620684623   16.16949969368110
C         1.39342576481769    1.82960173191145   16.75007891661193
C         3.73625245118705    1.11581617398043   18.05367317856761
H         4.64921509540740    0.84252887418849   18.56046964881180
C         2.90504327508435    1.95058071997893    8.63544672801990
H         2.57612078128348    0.90737821570136    8.65658495983662
H         3.54076287786138    2.09800103158668    7.75525851165700
C         1.40840777031682    1.63787586600471   18.14250439387144
H         0.49038336671683    1.77730827398578   18.69327500556330
C         4.97954622729627    1.55881820196096   11.75640771358992
H         5.52562781131185    0.72379853093971   12.20726833324012
H         5.60479460592730    2.45841609253458   11.82876540266460
C         1.68582300668547    2.87700200967719    8.60188503140260
H         2.01588703322483    3.91252669566326    8.48217985056037
H         1.03190957095703    2.62404563619435    7.76114242844013
C         2.56304470628573    1.28394792442207   18.79004764334656
H         2.57196185759327    1.13818741175049   19.85863859268349

