57
CSD_code = OCEVOI | q = 1 | S = 0 | Stoichiometry = C25H22N7O2Ru(1+) | MND = 6
Ru        2.80190339420660    6.98777675276483    3.63572050064251
N         0.96170934812025    6.20642327724052    3.96204097859614
N         2.98695308085486    5.40739270345897    2.65217103155180
N         4.64197464312406    7.31117225550947    2.86989461088186
N         1.86821894720271    3.71392337349300    1.50706956890244
N         4.04291174789507    4.36924181760856    0.85018512742304
N         1.99575281072218    1.59139950029705   -0.12474826131224
N         3.48359278326576    6.36960931483363    5.33029376758200
O         2.50806387541301    8.84708502128617    4.53782556163449
O         2.05892652377664    7.71014731240024    1.87052336190132
C        -0.03654604100672    6.66510245688942    4.70792459765972
H         0.18168901513316    7.54686049149787    5.29958366420178
C        -1.28664189817944    6.06839144794694    4.73402691875374
H        -2.06640507434054    6.48498128683761    5.35099595925697
C        -1.51714172175480    4.94140290542603    3.95371819144267
H        -2.48290909058146    4.46128274122259    3.95179124077730
C        -0.48278852189677    4.44868961310587    3.17801026386504
H        -0.58913747005262    3.58025142074682    2.54763091898430
C         0.74473864037128    5.10246673740805    3.20335584292946
C         1.89062357024916    4.66909571258759    2.40863269084005
C         2.98767172793268    3.54165805915107    0.79602094409002
C         3.03557547010686    2.42427766224148   -0.14045290213622
C         4.12765934445589    2.25556832471811   -0.99462786237066
H         4.94202730530670    2.96059540841626   -0.96539735790510
C         4.12158111696119    1.17716931676210   -1.86303932569210
H         4.94699445536019    1.01402578964797   -2.54000376762051
C         3.03814392395516    0.31302334499893   -1.84664076410706
H         2.99426782544742   -0.53908615546795   -2.50608544482516
C         2.00162519799679    0.57068916189929   -0.95316102132836
H         1.13618142568248   -0.07616246301881   -0.90140708580295
C         3.99878828490963    5.30592291596387    1.77525256294109
C         4.97612860646123    6.37877624019057    1.94081030229112
C         6.15430400713445    6.45990867507260    1.20546826957849
H         6.36250258393487    5.69319201293175    0.47700704015853
C         7.01245410332848    7.52170118679888    1.42769566240284
H         7.92962194487888    7.61450244730996    0.86792364747887
C         6.66764896346265    8.46696566504983    2.38681580103396
H         7.30824119216338    9.30982554052284    2.58993785325711
C         5.47837908695681    8.32106433532611    3.08124764171120
H         5.17158941414962    9.03775034476000    3.83454513818935
C         1.89342299692551   11.11315269613412    4.78125468428351
H         2.25141225652234   10.92857492728638    5.79082490396654
H         0.85233425189180   11.42668944917537    4.81859686720204
H         2.47011128810684   11.91944249067975    4.33417724633077
C         2.02773492039820    9.85687236421651    3.95293206052901
C         1.60724379967785    9.92605423283537    2.61756208599808
H         1.21736715857906   10.87320859323187    2.27954284054837
C         1.64053571381227    8.89373721400239    1.68298704045010
C         1.13029290417451    9.19335564659129    0.29349834504672
H         1.70893934656864    9.99983907617258   -0.15104403447635
H         0.09038889869990    9.50872519078204    0.33805716821293
H         1.21117543400072    8.30559486419395   -0.32901586314612
C         4.29665214300403    5.90681575583485    7.73467576363331
H         5.38479076225179    5.84327044862536    7.75181498323377
H         3.87752105395452    4.96451656857672    8.08807016314834
H         3.97584957428476    6.71111952970542    8.39691301154019
C         3.84475295403580    6.17326699611282    6.40699686564628

