106
CSD_code = OCEYUQ | q = 1 | S = 0 | Stoichiometry = C52H48BrP4Ru(1+) | MND = 5
Ru       -8.75262680017072   12.27715563851047   -4.43138123446876
Br       -9.29958340767103   10.44614399375805   -5.90802770285155
P        -8.28179640641115   14.48224433099625   -4.74644557042976
P       -10.90620865441674   13.12017498868006   -4.64468758410695
P        -8.51398289280041   12.46625268581272   -2.17507792443794
P        -6.58704892570566   11.47266266107328   -4.18874780398858
C        -9.59570203023691   15.52899892269659   -3.96497152809586
H        -9.26667760046409   15.74554231411945   -2.94502021565168
H        -9.64373092140765   16.47396857188992   -4.51564666671531
C       -10.95329110764484   14.82321597109753   -3.91468133577580
H       -11.72644495457717   15.40434215192848   -4.42288486239660
H       -11.27042575030988   14.68932945450030   -2.87528380087113
C        -8.39859728417813   14.94377850483382   -6.50636260743268
C        -8.75236155765992   14.01102096461537   -7.47271117857813
H        -8.98781836222536   12.99171776902615   -7.18571639469094
C        -8.82820523639967   14.37803173439143   -8.80455780200263
H        -9.10441615061575   13.64463517828924   -9.54686653404788
C        -8.55854097684293   15.68362941625683   -9.17554179105838
H        -8.61782993676755   15.97357550646677  -10.21333269369549
C        -8.21094554697622   16.62223855902240   -8.21466658108674
H        -8.00094956484271   17.64070904193447   -8.50476129994086
C        -8.12577214832292   16.25742708700547   -6.88526034607916
H        -7.83927193755693   16.98578790497338   -6.13774756561458
C        -6.72420422815354   15.31798367414951   -4.31652267683116
C        -5.64149480314553   15.03680787977090   -5.15140315553292
H        -5.79007669253081   14.39818357403910   -6.01226916481804
C        -4.39546366520251   15.57411263825141   -4.89341714858655
H        -3.56810478778698   15.34747314385203   -5.54871493632714
C        -4.21425567642520   16.40223004597892   -3.79625739950109
H        -3.24321138970246   16.82555167337544   -3.59139498567675
C        -5.28537056354033   16.69363394145370   -2.96806043362352
H        -5.14936849593591   17.34969449087557   -2.12114466515025
C        -6.53534932191631   16.15301522900421   -3.22004338448351
H        -7.35865662035508   16.40748027607975   -2.56880543651305
C       -11.64585756341650   13.33014111871083   -6.29492739544776
C       -12.21199406347538   12.20198743704054   -6.88720124135396
H       -12.21639693468373   11.25980531682767   -6.35534377987777
C       -12.76565999505147   12.28624484089880   -8.15018093509771
H       -13.20074882166151   11.40861173850408   -8.60293942447238
C       -12.76129453007846   13.49345499574322   -8.83070426161002
H       -13.19516515775589   13.55946945590435   -9.81664800527046
C       -12.20026776469241   14.61615319236751   -8.24556583736066
H       -12.19380892357793   15.55811801398543   -8.77347840013697
C       -11.63772507566691   14.53887388904571   -6.98433694710787
H       -11.18778327755907   15.42154184727368   -6.55159647903926
C       -12.27990911313911   12.28858070252090   -3.79864202405834
C       -13.51123304640034   12.92731278813171   -3.67610268654909
H       -13.65033059655108   13.91731466001404   -4.08687743780012
C       -14.55506865797056   12.28526307519746   -3.03829868099117
H       -15.50943170774443   12.78056634337771   -2.94144463594563
C       -14.38341980800056   11.00589150544806   -2.53015370648431
H       -15.20416630247304   10.50931247971673   -2.03559614690358
C       -13.16519372577596   10.36227441075035   -2.66467960090547
H       -13.03033366242017    9.36315558670461   -2.27814616804730
C       -12.11543542431493   11.00276890387774   -3.29920548323593
H       -11.16146386380442   10.50223532047869   -3.40813615424902
C        -6.76273937191566   12.90460335810346   -1.75894830102163
H        -6.70613375140685   13.99598442760111   -1.72432293818022
H        -6.54941684406458   12.51999215767313   -0.75642030372622
C        -5.76681825352018   12.38344068641565   -2.79822221017571
H        -5.01685835938907   11.73228013932872   -2.34299096349383
H        -5.23789680995926   13.22028058521071   -3.26594444796230
C        -8.72948010430431   10.85964544871063   -1.34059703847114
C        -8.99110223021369    9.70284262451754   -2.06342145548980
H        -9.04954790425129    9.73828323777863   -3.14595829580953
C        -9.15805984900540    8.49368004742295   -1.41202262289254
H        -9.36089535016830    7.60119507450835   -1.98426803573137
C        -9.05520239469100    8.43422438670392   -0.03332312305572
H        -9.18381217375533    7.49257897312772    0.47790108781922
C        -8.78729807739823    9.58466338113093    0.69455354507258
H        -8.70705264393361    9.53753282329217    1.77013736347007
C        -8.62886891768417   10.79511789187555    0.04844565491985
H        -8.43587992091950   11.69521213764166    0.61760247089173
C        -9.51396817842489   13.51791042288385   -1.07802522502431
C        -9.10169253312259   14.72959571468022   -0.53276700463273
H        -8.09769076584758   15.09519846641067   -0.69092118755526
C        -9.97319298278282   15.47045570673268    0.24808075019647
H        -9.64228845490674   16.40497868193540    0.67633432582301
C       -11.26050183933491   15.01819370892779    0.48570917942387
H       -11.93392213682648   15.60258542955686    1.09326533225440
C       -11.67728775538860   13.80932459888296   -0.05027965016360
H       -12.67627190657488   13.44532275064738    0.13630928968196
C       -10.81007908940816   13.06508618625373   -0.82619236023213
H       -11.12820874265747   12.11677582729422   -1.23902197360520
C        -6.30042642737027    9.71833031222325   -3.79523723399953
C        -6.33896151218744    8.81444653911746   -4.85618836953514
H        -6.51350036738041    9.17249411215046   -5.86213701273611
C        -6.15532070690980    7.46491431036829   -4.62434770785965
H        -6.18762060283234    6.77126200460852   -5.45037449329961
C        -5.93000162452478    7.00658378370261   -3.33609195926977
H        -5.78401629802264    5.95269637557216   -3.15525940412280
C        -5.89134825487253    7.90123722534208   -2.27979755364053
H        -5.71775656578939    7.54743033770881   -1.27444707782339
C        -6.08141641588982    9.25313462617145   -2.50220521740996
H        -6.06702039696443    9.93371504731304   -1.66230580787190
C        -5.40146695021567   11.67590939484728   -5.54838888550391
C        -5.85182833025624   11.98689029875125   -6.82536522445787
H        -6.91180105088369   12.11571172513651   -7.00479676800694
C        -4.95094333150412   12.13271663437813   -7.86552379010062
H        -5.30753934028955   12.37603044596746   -8.85521070377832
C        -3.59675105084705   11.96516153550896   -7.63148149136984
H        -2.89144541384416   12.07935408388178   -8.44037764741045
C        -3.14441756748883   11.64163517809336   -6.36055154117697
H        -2.08881780574982   11.50075906346916   -6.18335176450317
C        -4.04031038986120   11.49120777621232   -5.31968605587374
H        -3.68874983934895   11.22276677299839   -4.33354630956920

