112
CSD_code = OCEYIE | q = 1 | S = 0 | Stoichiometry = C54H52BrP4Ru(1+) | MND = 5
Ru        9.49030100436422    9.06039149772834    3.61634920127237
Br       10.85333394558083   11.07287252920499    3.72505535226290
P        10.21849310012519    8.64533384614169    5.84641994224414
P         9.97640309438064    6.86059128470187    3.10866802831648
P         8.94347790123991    9.75219506705367    1.40314154964491
P         7.24883958557532    8.63575764494714    3.97450476160009
C         9.98923853041165    6.94406093821786    6.53788694144893
H        10.54881947262396    6.90628846801835    7.47722407207268
H         8.92222587903077    6.85119274851054    6.76938575065734
C        10.42010053463381    5.76367076845020    5.66973855984363
H        10.30756247750680    4.85606691227626    6.27116022214434
H        11.47491140663195    5.84045956615459    5.39585469651241
C         9.59330067380953    5.59969817193455    4.40161881770911
H         8.53108913446222    5.65979787607239    4.65126285012355
H         9.80484069969147    4.62111848606996    3.95689571743904
C         7.49998152820868    8.94771936514103    0.56951769648171
H         7.29944845851525    9.52164982092756   -0.33999647073927
H         7.83824607669059    7.94748390643857    0.27651394564998
C         6.20005526452705    8.82673465601381    1.36223215243433
H         5.84832462964819    9.80627999186311    1.69428274189153
H         5.44024470828207    8.42296039283669    0.68560094627191
C         6.29947909881080    7.90477229978762    2.57005610369430
H         6.77449961483107    6.96679702877490    2.27201018196854
H         5.29272973244350    7.69519434493622    2.94777501979032
C        11.91279220990886    9.07319098333175    6.39967918089233
C        12.92770188576959    8.12735035657733    6.51166883806967
H        12.75124174685004    7.09308195788441    6.26093252135404
C        14.18577363216754    8.50209757630049    6.94781562931708
H        14.96155019276871    7.75560421108143    7.03283042527098
C        14.44998531247133    9.82178647224931    7.27163340975670
H        15.43385057280257   10.11026644255032    7.60823273352602
C        13.44470709985519   10.76813521309502    7.16458280687044
H        13.63904845528287   11.79907848513697    7.41731302911422
C        12.18441016466615   10.39909425855443    6.73428068892092
H        11.40906502904046   11.14796171090958    6.66173574958441
C         9.31450639592170    9.63966322102742    7.08376380542358
C         9.32321765995590    9.30810789145120    8.43627244169463
H         9.84965914824042    8.43381769748769    8.78636311745049
C         8.66124782945999   10.10773902761806    9.34922943741665
H         8.67079838834736    9.84061766049679   10.39528355434026
C         7.99572526696008   11.25041472155251    8.93329142866336
H         7.48169798046476   11.86913809393658    9.65268375417322
C         8.00342434417930   11.60019987659314    7.59438023052635
H         7.49821396197738   12.49334871457463    7.25778245560108
C         8.66241769106947   10.79926458575658    6.67883034402970
H         8.66561477142109   11.08241455266383    5.63511640482668
C        11.77456714482482    6.58374735909956    2.94673971248246
C        12.26138155853899    5.38283762577229    2.43424560772090
H        11.57418775614759    4.62333770569936    2.08838839166325
C        13.62439933914720    5.16713573731170    2.35937587391630
H        13.99623683708626    4.23635099284559    1.95844875952565
C        14.51280063528152    6.13856023344988    2.79627764878117
H        15.57590271488768    5.96470695657900    2.73118474646486
C        14.03513633214972    7.32810159537803    3.31869878638570
H        14.71839622403073    8.08652778269005    3.67044513291879
C        12.67111586478012    7.54669051138341    3.39469396030309
H        12.30468224390878    8.47674516491715    3.81745950176972
C         9.35290834050558    6.00778411201533    1.61937694648983
C         9.99426358613587    6.21778541262098    0.40025892819705
H        10.88312362516644    6.82913299715004    0.36315364049042
C         9.51874988965790    5.62588276725778   -0.75546625570609
H        10.03013608131274    5.79747801464542   -1.69046569978318
C         8.39708848785180    4.81382904435551   -0.71084515592700
H         8.02349977903639    4.35361041228734   -1.61238098952238
C         7.76733371195105    4.57886767280411    0.50037333410715
H         6.90711226297991    3.92765548566699    0.54500648153295
C         8.24004478444375    5.17027373745358    1.65895593445752
H         7.75421056368673    4.95220460400075    2.59898682937163
C         8.71230449891691   11.52102983665843    0.98135654440813
C         9.84602225882636   12.30319977877076    0.76489515976753
H        10.83124159813651   11.86787543021873    0.84913223371108
C         9.72161610732010   13.64015691638313    0.43791639156484
H        10.60909778154469   14.23245267226649    0.27652539327566
C         8.46763101618017   14.21514850734657    0.31738132453480
H         8.37129051407303   15.25909179767130    0.06154920761801
C         7.33732919311781   13.44287900288739    0.52305880091739
H         6.35467482882779   13.88022226182249    0.42591796084562
C         7.45536492893036   12.10543826846024    0.85583554590800
H         6.55801652817238   11.52858961302088    1.01592522667649
C        10.26939954832638    9.40099749544280    0.19671763308391
C        11.56523835975425    9.18307411926929    0.65138282101242
H        11.77061369117870    9.18437463737799    1.71319746858303
C        12.60181928713045    8.96064564413325   -0.23760707867984
H        13.60011762712217    8.78921134048604    0.13696982461943
C        12.35135634329014    8.95894580765752   -1.59860525866547
H        13.15446124014189    8.78436597499955   -2.29797917912022
C        11.06608816121854    9.19422288962994   -2.06172329820868
H        10.87039415034828    9.20832548278905   -3.12341023756689
C        10.03015462981477    9.42154485934055   -1.17510605628011
H         9.04211250476900    9.62272614560253   -1.55934715023976
C         6.30064839267040   10.17924752710084    4.20764776238398
C         6.87579931742493   11.40469852717107    3.89319527079142
H         7.89753216719908   11.44857647365080    3.52940111784623
C         6.15319272002103   12.57685420577218    4.02752017920684
H         6.61506451139511   13.52099397417090    3.78039134678869
C         4.84375101808024   12.52981327220252    4.47371282295609
H         4.27702422562090   13.44154643793156    4.58423148726184
C         4.25772306729398   11.30947251273098    4.77579584284759
H         3.23406791610949   11.27164339037495    5.11646776260208
C         4.97764111345147   10.13729195306531    4.64338952373873
H         4.51672419962935    9.18975380895474    4.88513136062913
C         6.62144847952410    7.62607394319636    5.36031362989407
C         6.27939808578692    6.28465043723006    5.20209942624241
H         6.31531924960076    5.82383884657692    4.22553344303527
C         5.85391001053477    5.53807681341277    6.28705611978401
H         5.58655088666146    4.50079245546385    6.15058709034130
C         5.76380767968458    6.11812613646810    7.54179454406354
H         5.43532448437529    5.53184234300072    8.38591119094795
C         6.07828679764865    7.45771488417724    7.70327073844531
H         5.98977846193110    7.92508195844159    8.67225210538886
C         6.50260780501106    8.20695346751014    6.62128139077861
H         6.72128055460988    9.25633090501024    6.74835968124464

