87
CSD_code = OCEZIG | q = 0 | S = 0 | Stoichiometry = C36H46N2NiO2 | MND = 4
Ni        1.40785166526365   -3.69269861743362   13.59891510561999
O         1.75097757127173   -2.20242495379144   14.65266509293906
O         0.44811924650231   -2.59622315845253   12.44802624167509
N         2.43870500350782   -4.78820493834143   14.68532134020559
N         1.00144994589872   -5.20960219626530   12.60982464025941
C         3.21896221293397   -4.40012366675265   15.66382111423644
C         3.29222189275232   -3.10813775205206   16.21176050114419
C         2.48389328771119   -2.04694423492207   15.69049921010396
C         2.53362238402761   -0.78693546659854   16.38150986198940
C         3.39599426190158   -0.64804543902724   17.43494476607479
C         4.24258492411968   -1.67182759282657   17.91556567900432
C         4.16546463517377   -2.88782517663995   17.30213829118716
C         2.40164109645906   -6.12299489378792   14.27531387303845
C         3.02954829722231   -7.19812664452660   14.90320714335781
C         2.92781490789580   -8.46803055081497   14.37002344661410
C         2.20552967706667   -8.68472557778185   13.20661013637058
C         1.55548893736919   -7.63835647337410   12.58220587966553
C         1.62505878380455   -6.35226017016193   13.11661093980785
C         0.15459440472567   -5.28394068884392   11.61274099970195
C        -0.48046376023296   -4.20556258980488   10.97346348801925
C        -0.25269546815524   -2.86068991849023   11.41006075566037
C        -0.85211055397639   -1.81009544480926   10.63254291312767
C        -1.65537979081319   -2.14867081424021    9.57765617326958
C        -1.93261977116884   -3.47478011827996    9.17717934774392
C        -1.33017157935274   -4.47917426884053    9.87655174771422
C         1.62671711114673    0.34617914537160   15.92410823970878
C         1.97550217576192    0.71106323465655   14.47640006421685
C         0.16862325803265   -0.12388864518277   16.01684111430054
C         1.76897520835147    1.60861540573271   16.78097232028979
C         5.17025977865909   -1.36989180002403   19.08134945821849
C         6.11735964722389   -0.22851805027274   18.68530428804799
C         4.33475457182374   -0.95454050877864   20.30026657684852
C         6.02166432324673   -2.57956027618865   19.47657228951293
C        -0.57017555123172   -0.36099704767941   11.00169302752197
C        -1.25296682900221    0.63887722530710   10.06240281350104
C        -1.07763753099596   -0.10017277907640   12.42481451637222
C         0.94378767341243   -0.12104223179581   10.92483134769462
C        -2.86155800466431   -3.70548527256359    7.99622076460187
C        -2.26341045326899   -3.04578465510070    6.74582799460441
C        -4.23203463191179   -3.08739524098908    8.30646832228538
C        -3.06701627717307   -5.19333454673334    7.69874943922810
H         3.76016578993898   -0.05442086775458   20.10086595505501
H         3.87687159512144   -5.13381334434889   16.12490378534205
H         3.43954736602684    0.30168953214845   17.93998084854270
H         4.76155048778039   -3.72419643272670   17.63142248221046
H         3.59440304292519   -7.06272801811232   15.81197812467939
H         3.41893579728742   -9.29368224374395   14.86207558119115
H         2.14408233763538   -9.67705733934191   12.78646862473225
H         1.00457041749237   -7.83891592712564   11.67694448132299
H        -0.08952710157571   -6.26525957884214   11.21137069368987
H        -2.11119085203180   -1.35839823020149    9.00611750640603
H        -1.47445030416178   -5.51497476843229    9.61278875460094
H         1.82641380176997   -0.14436801805644   13.82745930480102
H         1.34113420847854    1.52508115490846   14.13356940075166
H         3.01470830375620    1.02799263387803   14.40803828252862
H         0.00994022618093   -1.00194852366618   15.39906433095782
H        -0.50136099592100    0.66289849188994   15.67785203407890
H        -0.08088558956813   -0.37293936060358   17.04696167534712
H         1.08124924579231    2.36634888202015   16.41088326638152
H         2.77586539540711    2.01667037145383   16.72257940505859
H         1.51928440668651    1.41234995672534   17.82166575867405
H         6.69839134503926   -0.51029227133102   17.80965160731336
H         5.56935896526427    0.67985079997509   18.45146910075728
H         6.80415020592879   -0.01071652037647   19.50065792843840
H         3.64121721915825   -1.74888441841522   20.56831534415164
H         4.98427886683767   -0.76087828445587   21.15146149400177
H         6.64612962433967   -2.90437398441460   18.64755979926651
H         5.39614675157540   -3.40867659635507   19.79916499989445
H         6.67472366569079   -2.30990245209080   20.30415035316819
H        -0.91760806796358    0.51157286467021    9.03515989078975
H        -2.33617433408588    0.54492864767059   10.10228901052245
H        -0.99509144093785    1.64914983979799   10.37376009033707
H        -2.14838656988039   -0.28783695899409   12.48276652886561
H        -0.56946041275198   -0.74840546218325   13.12959292741504
H        -0.89105331286199    0.93422412136943   12.70372197653414
H         1.30054558241618   -0.29508744978008    9.91099441952593
H         1.17572279147700    0.90436678227245   11.20327948273707
H         1.47134818049815   -0.78913549720489   11.59799247525480
H        -1.28030972039571   -3.46200073837224    6.53575006583123
H        -2.90499488006713   -3.22295770218728    5.88507654826319
H        -2.15759895150130   -1.97228757542942    6.87459196833992
H        -4.91767721300787   -3.26100992646952    7.47962159169905
H        -4.65165734098337   -3.53711822087249    9.20391464486451
H        -4.15814486901861   -2.01544034835761    8.46624373857207
H        -3.74704019666152   -5.30535991960514    6.85666599799707
H        -2.12671670080529   -5.67278495462594    7.43659219720973
H        -3.50303344766697   -5.70509475406024    8.55358425651413

