24
CSD_code = OCIDAH | q = 1 | S = 0 | Stoichiometry = C8H13N2Pd(1+) | MND = 5
Pd       -0.28541294868769    2.61504953437370    5.56920627150486
C         0.84916012378690    1.42332397917820    4.29350994325689
H         0.23313055844575    1.37002874935106    3.38974271206511
H         1.29073730912254    0.47613378503894    4.59631904775768
C         1.56045122255615    2.61486787818229    4.56744832444881
C         2.80490227297324    2.61502023338076    5.39966351705324
H         2.86009094560232    3.50609462501941    6.02693917322059
H         3.67407777393802    2.61500438639190    4.74122904603688
N        -1.30550877598413    1.11906972483210    6.53847141347400
C        -1.93335619343470    0.28965536325502    7.02605040215413
C        -2.69815629434546   -0.74263734573866    7.63110686595212
H        -3.61149529329224   -0.90668311801984    7.05866343194140
H        -2.95885324291212   -0.46123516560620    8.65158418933785
H        -2.11797254409146   -1.66565780707377    7.65085482910640
C         0.84912954121138    3.80632231960913    4.29320658448699
H         0.23289970692606    3.85939954867207    3.38956117066633
H         1.29044933507053    4.75362747438519    4.59603614763556
H         2.86018838641422    1.72409362232555    6.02714137277038
N        -1.30584118701819    4.11060984423050    6.53868035540573
C        -1.93347093421535    4.94030615755094    7.02577780072149
C        -2.69796665253935    5.97249923609632    7.63125778914272
H        -3.61139334719655    6.13670458223935    7.05899020124628
H        -2.95850885244854    5.69093695809466    8.65173477142143
H        -2.11768090988289    6.89546543423414    7.65102463919334

