65
CSD_code = OCIJOA | q = 0 | S = 0 | Stoichiometry = C24H32N2O6Pd | MND = 4
Pd        6.12383604956783    2.92756302843305    8.14697629581610
C         6.96184222335925   -1.59166779719519    5.48588860150403
O         7.71277833886916   -1.79063634247761    6.60804946567437
C         8.51142139734900   -2.95080610777770    6.69939598822966
C         8.85621583687947   -3.22157561588791    8.16380530113108
C         9.93872943591262   -2.32058269897734    8.75804061295664
O         9.38905405444875   -1.05333633368269    9.03573592445735
C        10.05399434076474   -0.21475074730895    9.89040978177621
C        11.34267262439025   -0.43532659103756   10.36125796144983
C        11.93170587559191    0.47180391461082   11.22734405008181
C        11.25113519843453    1.60535282569168   11.62981353847901
C         9.97086128551670    1.83519930403000   11.15541289890341
C         9.36263123395319    0.93772701256801   10.29244307618913
C         7.98467776655617    1.22380768170732    9.74773808270523
N         7.95840957745723    2.42600821735435    8.90360638698866
C         9.00804014487987    2.50051518550354    7.88940232097746
C         8.83329686087987    1.49281266091992    6.75105160303151
C         7.65539758834899    1.83985992552295    5.84174695791860
N         6.35490723333010    1.70510385709717    6.50378180325392
C         5.92699867224905    0.32102493477949    6.76992072618050
C         6.01664164651049   -0.55452700851491    5.54340759754920
C         5.20261471380943   -0.31452542033337    4.44843797203035
C         5.31255602431352   -1.07231386515869    3.29521337479245
C         6.25961046682273   -2.07682114009420    3.23452557050858
C         7.07994814825592   -2.33928183750496    4.31923451194303
C         5.91898704360319    5.84398449449299   11.38515300799465
C         6.50569264801279    4.76750808911006   10.47811359624148
O         7.72707640342743    4.54862216954282   10.51173763402222
O         5.67180428869949    4.15746130023092    9.75492391890780
C         3.54573614556473    5.38988553022187    6.08340587759946
C         4.65734852176925    4.49579004633871    6.61148523126586
O         5.84071708959838    4.72504056189570    6.31619405877944
O         4.30043551855192    3.50218198594664    7.31873294938501
H         7.95502798915087   -3.81442864021492    6.31260458177382
H         9.42869655238506   -2.82738597935732    6.10636156336472
H         9.19973865273899   -4.25375845037967    8.23989070380230
H         7.94914335254738   -3.11000300066004    8.75934257835139
H        11.90408821828806   -1.30299693670505   10.05165348784141
H         4.86197714615877    5.65668403724336   11.54781155315870
H         6.03873640414005    6.80568058332113   10.89065461789731
H         6.45884722924651    5.86724675349801   12.32759801395556
H         3.33344469629494    6.14590769659808    6.83588829395212
H         2.64444963215611    4.80756443474720    5.91497394548925
H         3.86694757430261    5.88223893725239    5.17080521611412
H        10.78392729668488   -2.22645881407839    8.06088022843723
H        10.29953695587434   -2.78160927616228    9.68705723881828
H        12.93402986525206    0.28429286338114   11.58256120549958
H        11.71468216388804    2.30916351049315   12.30307845798922
H         9.43300798597614    2.72564075194996   11.44610965709414
H         7.28770830460105    1.39970899947892   10.57561374997933
H         7.64737519507858    0.34979813923374    9.18586520804161
H         8.07288174637813    3.25589701813980    9.53974369605388
H         9.99001455000668    2.34159194463862    8.35553089346848
H         8.98346695730432    3.51752530915838    7.47678363669080
H         8.72421359719944    0.48476771265024    7.15114277055964
H         9.73936192479957    1.50831946870602    6.14205331213761
H         7.74097298903866    2.88722045144517    5.52899630726863
H         7.69120413291763    1.20171857738395    4.94737622399564
H         5.66008876170877    2.12888361174542    5.88415946341033
H         6.55541106515073   -0.11295630209398    7.54925876538873
H         4.89196566589142    0.36692957794335    7.13165549464368
H         4.46740435641397    0.47547253178878    4.50548280421673
H         4.66905663589036   -0.87632279490503    2.45207500517150
H         6.36750487363938   -2.66786439589234    2.33770003792099
H         7.81731313124850   -3.12216954058389    4.23810460872925

