54
CSD_code = OCIKES | q = 0 | S = 0 | Stoichiometry = C23H27N3Ni | MND = 7
C         6.79171851285651    4.11262022056615    6.63115648363647
C         4.92194367565129    5.34665015577890    6.68819134426245
H         4.18657125753219    6.03218040018023    6.31968086250219
C         5.01489678846010    4.68656468309409    7.86453499438302
H         4.36887409836785    4.69209306833296    8.71837807240964
C         6.34059695273760    5.56801032582564    4.68971639900146
C         5.88923945892457    5.00202958497873    3.49951980539685
C         6.24509166927872    5.61721367730123    2.30743024844085
H         5.91546698358402    5.17854237124729    1.37694492373819
C         7.01271661491721    6.77204031196934    2.28081236054556
C         7.41947268262265    7.33063158220156    3.48436197012693
H         8.00955690551093    8.23630804304057    3.48004353568595
C         7.09336553119097    6.74440813320425    4.69691642309529
C         5.05204452276790    3.76270238108068    3.48050883538109
H         5.69520650299345    2.88954957558296    3.37063919922486
H         4.36728148046930    3.78117033831443    2.63606422033251
H         4.47899026635698    3.65089358651131    4.39827402677730
C         7.38661337254511    7.39612727216155    0.97141344708734
H         8.00391905999671    6.71006021086320    0.39278867830096
H         7.94070488377585    8.31924621712214    1.12092786490507
H         6.49471622428009    7.61383973268179    0.38561625423155
C         7.54748700987076    7.34248027051039    5.99419053109278
H         6.69335141981222    7.64497959810385    6.60097660051988
H         8.17187962161377    8.21391205848698    5.81664846980221
H         8.12009623411187    6.61170684755496    6.56463951447160
C         6.64855915506509    3.16960770242503    8.93898534542567
H         6.10809401845237    3.52081682699989    9.82194302984855
H         7.71162147528747    3.39312698421390    9.07195592733510
C         6.46189554536634    1.65145207166572    8.79459172680791
H         6.36002934564443    1.24391119463286    9.80164427402501
H         5.52507355428369    1.45636218671876    8.27027732454893
C         7.62684932995549    0.94533287981188    8.08378635055719
H         8.46896819968683    1.64279421769262    7.98829549068232
H         7.96032256627948    0.09995401982074    8.68903593387452
C         7.29890733056191    0.42913462805835    6.68161720646386
H         8.16152921347768   -0.13213717146419    6.31443810617659
H         6.45231343731754   -0.26516720694879    6.73626643842015
C         6.96354421729688    1.55778120170101    5.68907638189550
H         5.90699640418574    1.84561676006678    5.82037095906017
C         7.10212442929355    1.10212127871238    4.34609113843619
C        10.28484996523908    2.89016871290497    6.27185715710364
H        10.77991785007334    2.45942024982352    7.12866568525209
C         9.89373716144638    2.20795689505642    5.09737293342693
H        10.09004568725655    1.16711412808751    4.88145509776483
C         9.51961486229973    3.18061212907742    4.10724997098453
H         9.32180994295741    2.96477418893093    3.06992781283088
C         9.55957063792643    4.42704493320990    4.70820652157303
H         9.42373905919229    5.38004098947868    4.22198250982542
C         9.98596324519288    4.24671356280878    6.07375392007575
H        10.25055650039077    5.05302657971278    6.74479939663239
N         6.01296803617233    4.98263034711314    5.94724284283139
N         6.16310674287808    3.94170935784677    7.81884217653272
N         7.16108777470841    0.69113504546583    3.27132896012550
Ni        8.20200258188283    3.12658465967342    5.82506431611911

