93
CSD_code = OCIKIW | q = 0 | S = 0 | Stoichiometry = C35H51ClN4ORu | MND = 8
Ru        6.14261430320745    3.49000943737345   12.14355577319061
Cl        5.65964280452317    2.25186114404288   10.20306209895141
O         2.81882773583098    2.75946106551183   11.89261677525006
N         7.11227582104754    4.63250207365568   10.90136869912007
N         8.38361481989989    4.44903494786578   10.79752684929243
N         8.85776438664931    3.53979879152652   11.56577683602665
N         7.94749316964117    2.90980822650123   12.26224546292711
C         3.83727513702903    3.25323555077072   12.63151204166658
C         4.23421286427875    4.59161095788615   12.71803549941117
H         3.73687472182921    5.41168440279307   12.22641664594026
C         5.26669119972337    4.69925879266649   13.70826453785356
C         5.41982411427255    3.37353305838941   14.31594435300636
C         4.59324475049798    2.45863264510395   13.58931508612866
C         2.39438136374168    3.52992543003280   10.78696448307193
H         1.89975748821011    4.45288970147324   11.10686995187085
H         1.68385746459312    2.90756804661815   10.24632475471646
H         3.24179370259484    3.76704225801851   10.13532694721623
C         5.76380523827822    6.07996693222489   14.13230510131322
C         4.77977511495459    6.66359957934642   15.15806169418417
H         3.83800654744547    6.90748054084669   14.67006658142160
H         5.18700282426771    7.57356923409369   15.59372575533944
H         4.56337835883383    5.95939826083497   15.95427992106995
C         5.79862063177215    7.04644850234410   12.93603481148372
H         6.51708252807159    6.69878470925432   12.19966713992981
H         6.11487034569311    8.02853166871889   13.28321089254476
H         4.82879687988236    7.16720698798396   12.46300248702271
C         7.20290621869374    6.05100889690408   14.66410832897329
H         7.27090883647926    5.63233450330589   15.65831929905758
H         7.59804422909705    7.06427036582438   14.70674067605753
H         7.83344236227831    5.47162564195844   13.98426157001513
C         6.31448506650150    3.01573852781554   15.49029012947384
H         7.23263828686267    3.59845092275742   15.42475449831406
H         6.60787856797527    1.97685868349991   15.36603934162474
C         5.76762948001727    3.14605845340547   16.95190317950019
C         6.30292059205071    1.96439251062384   17.77540183084202
H         7.39106557744473    1.96149182219415   17.76673496067895
H         5.96007724348198    1.00584957943774   17.39733989075098
H         5.97203581810734    2.04989676394107   18.80837501317374
C         4.23983896514113    3.15110374838352   16.99555677990316
H         3.89415019410778    3.38370979916864   18.00095565873856
H         3.84150887222423    2.17918520103843   16.72235689259088
H         3.83042757742207    3.88937036573654   16.31000987711876
C         6.29065269807177    4.40263024411875   17.65915122799573
H         5.98565291390201    4.38330881609147   18.70416450095695
H         5.90009219988230    5.31474385070168   17.22460736865367
H         7.37865336680044    4.43371501374727   17.63491777181947
C         4.19341972118032    0.99155613134133   13.77503291666840
C         5.02522670190005    0.18133148082274   14.77122309138865
H         6.07455360319872    0.14185197594905   14.48805512842808
H         4.65554655923710   -0.84316295586477   14.77618901650118
H         4.92811507529345    0.56708952433480   15.77837131276936
C         2.72670451338406    0.95292720029635   14.24123497931089
H         2.59272337975588    1.51069519679646   15.16486090128904
H         2.42492344761625   -0.07796517758534   14.41415517554089
H         2.07445444115429    1.37837104789228   13.48585903697991
C         4.29990024595449    0.25366439718711   12.43195686025828
H         3.66929976613304    0.70730123757055   11.67541535626849
H         3.99140884567680   -0.78281080668364   12.55602333221687
H         5.32710990189900    0.26974857666456   12.07440561573379
C         6.51414628965788    5.42075332410982    9.85402010892719
H         5.55844303042850    5.80972072018982   10.21464746812771
H         6.31066198908939    4.74957546103041    9.00824387106758
C         7.41482958642783    6.57050876076282    9.37781425062809
H         7.68361537585315    7.19139888501171   10.23482925580748
H         8.32925855657276    6.14500755340981    8.96458985185277
C         6.68931122350380    7.38874880974376    8.35126771232513
C         5.92401841243165    8.48326390259898    8.73337230184435
H         5.87818508446544    8.76270559551340    9.77689769768714
C         5.22974658411338    9.22162957218281    7.79149035060868
H         4.64262049595453   10.07412025843313    8.10138530122703
C         5.28881023348871    8.87040386410998    6.45378653704772
H         4.74897151180303    9.44728783520574    5.71745128124820
C         6.04472128373717    7.77776889649885    6.06388613889536
H         6.09459361560062    7.49979395775323    5.02127850073113
C         6.73861650201789    7.04144471128800    7.00724878022475
H         7.32957607257065    6.19072432098247    6.70000737081569
C         8.44750802356557    1.71819923824090   12.89240157501541
H         7.72799719867740    1.38829078105350   13.64298098401390
H         9.40977137088994    1.93039504923395   13.37144201121074
C         8.63147758415549    0.61476620562592   11.83089073624134
H         7.69575084496839    0.51311889381913   11.27531760041999
H         9.40996529778361    0.93812853447617   11.13712552261240
C         9.00206274974830   -0.67912007985760   12.49077592085857
C        10.32284606332278   -0.93603432738071   12.83872200580539
H        11.08663521209723   -0.21114094709304   12.59524948264527
C        10.66602669718440   -2.11162976714297   13.48156973376357
H        11.69732211381547   -2.30186817443009   13.74153619469898
C         9.69052361286084   -3.04462900649051   13.79066212518368
H         9.95811597407803   -3.96309326507150   14.29205079663674
C         8.37212006918027   -2.79732659437862   13.44882814838953
H         7.60717357694482   -3.52346752472154   13.68282989847178
C         8.03097869997771   -1.62158087473342   12.80378840249069
H         7.00211947757300   -1.43864905604200   12.53045938296503

