50
CSD_code = OCIKAO | q = 0 | S = 0 | Stoichiometry = C21H24ClN3Ni | MND = 7
C        -0.27724617494080    2.50963745818453    4.22843173638023
H        -0.77523758747589    1.73021241646109    4.78430194650022
C         0.76872065382857    2.29833194631226    3.29443879828907
H         1.24763084044253    1.35703122125586    3.08142059259015
C         1.02776208852881    3.53045938560781    2.69601916112228
H         1.73095703018131    3.72017795259608    1.89858635181458
C         0.02626069801574    4.47581410736267    3.13797235680258
H        -0.10305402836408    5.46712861172888    2.73198760426544
C        -0.80158296046123    3.83274976394408    4.04216866005462
H        -1.70553670580985    4.21735026146617    4.48694464175130
C         1.57441131816510    3.31936929847392    6.64423588074206
C         2.04561113797493    3.30701021538367    8.82821670513952
H         2.24163727735601    3.72137227400123    9.79550356586807
C         2.00440365206646    2.02027680705435    8.41805343070366
H         2.16708258179290    1.10452094565621    8.94756179923245
C         1.79751123513469    5.53483544376778    7.82039745736504
H         2.33687274332923    5.92252866631465    6.95012995250769
H         2.34583877487027    5.79863242019309    8.72663029263559
C         0.38371250585301    6.12546365338725    7.87301521051745
H        -0.27911950751297    5.43680030701869    8.40387561129094
H         0.40411260773780    7.06328301128516    8.43031172650266
C        -0.15254817388731    6.38056196980757    6.46048925238844
H         0.12265185654822    5.52455885961503    5.80945505818765
H         0.30183788283436    7.27732332131335    6.03287504652189
C        -1.58105832066227    6.51268104126854    6.44452643337268
C         1.62956176732897    0.85538424725271    6.30608754780951
C         2.66030225235135    0.53563313709371    5.42079319919359
C         2.57118727438180   -0.65425139124823    4.71405304038955
H         3.36061384810365   -0.91318399397087    4.02307886115826
C         1.49278633415356   -1.51415132565591    4.86893870351629
C         0.48358865422635   -1.16699313044826    5.75606921697482
H        -0.36415948028469   -1.82540842124239    5.87993337197512
C         0.53521511693562    0.01017492405482    6.48722699374952
C         3.81296842672458    1.46853703692833    5.22591732692704
H         4.55333563183888    1.03662231527915    4.55896867515522
H         4.28871066105683    1.71187731054688    6.17520721947717
H         3.45766926966840    2.41020909991098    4.78560263039112
C         1.40442406875805   -2.77896467676121    4.07212768710079
H         0.86953469014063   -2.59222745021457    3.14034493910571
H         0.86425206901470   -3.54696654884987    4.62055935455538
H         2.39505723098139   -3.15097665413389    3.82234573241399
C        -0.56543329884921    0.36840505469241    7.44121666907107
H        -0.27439490371727    0.13997144340918    8.46684383463909
H        -1.46417777814686   -0.19897345501466    7.21306143398206
H        -0.79911170263689    1.43072844834927    7.38818357804454
N         1.78852513574650    4.09021747447751    7.73741355058012
N         1.71829166714895    2.04556044556331    7.08165269775316
N        -2.72243698048360    6.59036088336799    6.44539990076996
Cl        2.85466223184104    5.15781753644218    4.73497089603077
Ni        1.26859638816957    3.77888633071230    4.79325366669288

