67
CSD_code = OCILOB | q = 0 | S = 0 | Stoichiometry = C28H30ClNO5PRh | MND = 4
Rh        8.84964524649140  -15.68634823031972    8.86742907462362
Cl       10.07450959161603  -17.36711022171525    9.73516583501713
P         7.51841498818260  -14.17725652480984    7.84415081441179
O         6.17973772234927  -14.92853147748685    7.22389947261470
O         7.90021806548836  -13.33764586057514    6.53030414028002
O         6.91760102302019  -12.99050047199805    8.72506835554814
O         7.75656681553947  -18.01646955548250    5.57366069150513
O         9.80567797710824  -13.77231240782382   10.92676098786271
N         8.04626842266872  -17.03272524220604    7.54429735941980
C         8.59264816078256  -17.52714721855814    6.49799359682005
C         6.41975134942104  -17.73865087457590    6.00899130306514
H         6.04453073226082  -16.90213488011734    5.40189977919593
C         6.61753603678142  -17.29573427636114    7.48111912462428
H         6.38882008689373  -18.12530376601184    8.16689918068552
C        10.04425210953595  -17.64477676779423    6.24285521525523
H        10.34794262045643  -16.93624449852645    5.47405022869116
H        10.58729491870557  -17.46057018699846    7.17038293043794
H        10.25561624520764  -18.64878737721612    5.88044183016923
C         5.52788727667294  -18.93759492731657    5.87239066180660
C         5.97688627103735  -20.18892714155869    6.27560912593794
H         6.98119196503867  -20.29908899706893    6.65749696683291
C         5.14602830270112  -21.28999133245733    6.17738688040198
H         5.50369268215622  -22.26020151405212    6.48718842659453
C         3.85884244768820  -21.14755941213969    5.68705724434995
H         3.21002100023069  -22.00715390419438    5.61334311229652
C         3.40595347231139  -19.90128312305847    5.28918648619893
H         2.40365811102659  -19.78645526304010    4.90464067794430
C         4.23846326112454  -18.79963515591237    5.37768027305588
H         3.88761868299525  -17.82808212309377    5.06044085172167
C         5.77889119576614  -16.09124090736777    7.90386317076058
H         5.88617160192968  -15.95361651963599    8.98941227881308
H         4.72657628402169  -16.27093666540341    7.66472471513444
C         8.46068018636824  -13.91449732142757    5.39907296261707
C         9.80865664050221  -14.27252060054503    5.38310320548584
C        10.33021160726621  -14.80226372883261    4.20680398609040
H        11.37688252767021  -15.06914275922969    4.17145977417188
C         9.53672752814491  -14.97894200909879    3.08897959364131
H         9.95709456933806  -15.40171061082746    2.18921834455133
C         8.20785901009129  -14.59853244402971    3.12055108213810
H         7.59063980097736  -14.71921286517857    2.24282823661201
C         7.65336020771426  -14.04983318907085    4.26871900101640
C        10.67910993048531  -14.09074998445454    6.58609324154966
H        10.52035581117730  -13.11014727009170    7.03122575416257
H        10.44764768398896  -14.84936579079162    7.36329946534818
H        11.72724092273496  -14.19158977482779    6.31654824478511
C         6.23106069026443  -13.58323486835229    4.30084806313084
H         6.19934389409026  -12.50140169326574    4.43012288298284
H         5.70386690749052  -14.02342665411459    5.14435137382885
H         5.71899295172067  -13.84370419533155    3.37819169384312
C         6.41649978953401  -11.78745298887845    8.22560735386962
C         5.03983949181641  -11.64061876320301    8.05866481159342
C         4.55575994287242  -10.42509206542904    7.59529402114293
H         3.49133108991928  -10.30089356236358    7.46063326310413
C         5.41624077795943   -9.38121270574179    7.30920696263991
H         5.02581636524615   -8.44295066993007    6.94485373560656
C         6.77434716052344   -9.53783964747791    7.50536376115460
H         7.44934247789102   -8.72022480900863    7.29987736480930
C         7.29724031068508  -10.73880789715495    7.97101967492493
C         4.10242471226052  -12.76583155662338    8.37453094144393
H         3.09721691995732  -12.38788093145243    8.54407764844377
H         4.06973832237835  -13.47140719211484    7.54494779308559
H         4.43683996947725  -13.30205100888272    9.26037657951007
C         8.77272682083963  -10.87623631878555    8.18880010535548
H         9.16231855080501   -9.98715830879867    8.68091954107447
H         9.28125509797931  -10.98013741780593    7.23009249683554
H         8.99892947803845  -11.74582993532846    8.80151981096413
C         9.46558718459624  -14.51998163666350   10.12650643641605

