76
CSD_code = OCIMAQ | q = 0 | S = 0 | Stoichiometry = C31H38Cl2N2RuS2 | MND = 6
Ru        4.19307687988666    2.17044275929666    0.05334285881638
Cl        2.51249257885019    0.75618086882666   -0.77119274304951
Cl        5.76073457712001    1.65875870413078   -1.69783335447648
S         5.39764733642732    0.13799449373447    0.79629239020804
C         4.55994859900111   -0.81244377030258    2.10084716332762
H         5.20046233404333   -1.63874599938367    2.39633256269887
H         3.64602129231082   -1.18882453943248    1.65028314139718
H         4.32411411975406   -0.17928129203123    2.95109554474028
C         6.75634977959642    0.85653469164709    1.80610248476571
H         6.37961071254384    0.98863942503089    2.82310149504284
H         7.57045019448885    0.12928820082976    1.80801985314244
C         7.23819736936046    2.16741111068573    1.23012205176807
H         7.55959102218662    2.04559606834936    0.19304679180895
H         8.04374919232953    2.58869326762502    1.83325394630566
S         5.91143822679836    3.43213902176076    1.12848761586562
C         5.22169857991147    3.31725669854732    2.77824757456647
C         5.89656141743343    3.83192703945272    3.86382630094738
H         6.84712296587622    4.32524661061765    3.72356595562960
C         5.34448989820254    3.70661301135723    5.13038047468877
H         5.86610225106881    4.10532665636198    5.98695565249206
C         4.12285011634925    3.06354997422597    5.28970299780728
H         3.70154243745045    2.95725901108022    6.27891878993044
C         3.44824554453392    2.55447512098290    4.20156169467498
H         2.49871598455626    2.05595759570757    4.33086161589496
C         3.97339647656681    2.67424428233040    2.90087270659562
C         3.32550655967807    2.15226827879412    1.74677161673743
H         2.45293681620957    1.53618484013211    1.98057699969156
C         3.14694938270651    3.67524998801856   -0.82486611441797
N         2.16348935405468    4.35088372887103   -0.21688607253160
C         1.39219120474787    5.19179601221147   -1.12700651374205
H         1.46740631986525    6.24166816470833   -0.82345211616641
H         0.33831467945743    4.90381703413737   -1.10751852121153
C         2.05203253536764    4.90868485471201   -2.47260007914214
H         1.36729910232125    4.44090566222475   -3.18390640274741
H         2.47790588752353    5.80165046705319   -2.94154957565344
N         3.11933281537257    3.97372645892751   -2.12078232060999
C         4.04780563072944    3.65016154777121   -3.15068197165424
C         5.24933124563491    4.35854410547229   -3.21384555824530
C         6.12698120145209    4.08955708169117   -4.25026082512507
H         7.06795327693138    4.61986609535322   -4.29429302242465
C         5.83206832952509    3.14020553540608   -5.21773079661923
C         4.62563965479546    2.46284880140644   -5.13927853070094
H         4.38964176836309    1.71354506939608   -5.88182075369997
C         3.71560758775665    2.70434305506448   -4.12005824203433
C         5.60546137689840    5.35284352834922   -2.14995501065079
H         4.79913770429338    6.06528112535516   -1.97787990727732
H         6.50348652346107    5.90015555237731   -2.42424348154878
H         5.79865836334984    4.82506185762465   -1.21432537950511
C         6.81361195593821    2.82965475359037   -6.30659531799369
H         7.47418654528366    2.02472831133087   -5.98340652764307
H         7.42730211493205    3.69770073905405   -6.53752929262930
H         6.30292902257855    2.50399024023147   -7.21012060477398
C         2.42610950799472    1.94655844762741   -4.06247950749616
H         2.20244861765405    1.64464308711631   -3.03999858912107
H         2.48816728190254    1.05302394253000   -4.67802103460870
H         1.60001807494741    2.55509365780934   -4.43432406220963
C         1.86798788819285    4.43208987927300    1.16880392783573
C         0.79797276482411    3.70153908906658    1.69254579073042
C         0.47784091136838    3.87062540677141    3.03281158176430
H        -0.34339758658781    3.30374396517573    3.44879704885284
C         1.18436069728851    4.74174372549613    3.84754960013231
C         2.23526340640547    5.46427031751375    3.29849601372238
H         2.79348548245210    6.14593328215546    3.92428071081290
C         2.58521884333023    5.32973580990638    1.96555179268237
C         3.70715727444920    6.13757996438220    1.38787975594667
H         3.31621498386900    6.98415758257940    0.82224294028622
H         4.31029338125871    5.52874537546963    0.71621652296654
H         4.34457664562425    6.52329352476098    2.17868910198012
C         0.02367267577327    2.75317120285296    0.83355045608653
H        -0.54421908490718    2.05986271245509    1.44816951334865
H         0.69388139814663    2.18389049651580    0.18808586554998
H        -0.68158472687075    3.29414570863032    0.20260162141771
C         0.81847699461725    4.92109135557024    5.28933978324141
H         0.23620213148050    5.83409651691080    5.41573605088968
H         1.71303974880716    5.00776940958384    5.90238651068722
H         0.22173584208487    4.08623363915663    5.64783736133217

