225
CSD_code = OCINUL | q = 0 | S = 0 | Stoichiometry = C92H124N4O4Zn | MND = 4
Zn       14.94145494119678   14.94149458508658    2.71423872915003
O        11.27443085520996    6.65104712499052    2.42027939667216
N        13.05663333295708   14.19747731920800    2.74813142614481
C        12.70099036378622   12.88529351026348    2.68790875994808
C        13.57610267292375   11.80053884138923    2.65734449943754
C        12.66234725465770    8.35398973937860    1.43691155084043
C        12.98826717568421   10.44503574480835    2.60704496338628
C        11.90164933200476   14.91656015923511    2.74987223157639
C         9.98210351779180    6.64747631990530    1.83651161468460
H        10.03509118070564    6.99997400836968    0.79572951501470
H         9.31591746050218    7.32885687826790    2.38568411525477
C         7.46783824062924    3.72625050514997    1.36256268562648
H         8.11581418212901    3.06489094255849    0.78296990924804
H         7.47407763099067    3.37181756369041    2.39583054040658
C        13.22076257582842    9.62003310422863    1.51513937507013
H        13.83945243488987    9.98676478657583    0.70984801003032
C        12.94710507678353    7.46053608642015    0.25277870099662
H        12.44660793221770    6.50303056292511    0.42479616454020
C        11.27048329823989   12.77061814360111    2.63378274675452
H        10.72832984976084   11.84863122606103    2.55580549336967
C        10.77473291758166   14.02942797362052    2.67700261572807
H         9.74847491774630   14.33870236810680    2.64025803858653
C        11.85002406620524    7.91210185180821    2.48522966433561
C        11.63194235861888    8.71281679920518    3.61037980410558
C         9.43556128103381    5.22657819505358    1.88561239734960
H         9.43832153784860    4.88884003409503    2.92353367623195
H        10.10584120861716    4.57352617227063    1.32417565897303
C        12.40736027329920    8.07509805077577   -1.04035951500032
H        11.34230532916175    8.28230335697554   -0.95379274806066
H        12.55919204258642    7.39130241125739   -1.87297023183905
H        12.91681479276826    9.00897014303255   -1.26566533162106
C         8.02356350728892    5.14720586366310    1.31386525523546
H         8.03152285908828    5.49782718521468    0.27891471238561
H         7.36673847304365    5.81140815117924    1.88103863645720
C        12.20425713693817    9.97440156542799    3.65126874947116
H        12.05180183274686   10.60755707238608    4.51244031795821
C        10.81103002997839    8.20528133070847    4.77247144626237
H        10.47742086678821    7.19105537847009    4.53457201295005
C        14.44832186786255    7.18885848157947    0.13694370089098
H        14.64115463468087    6.49783105540352   -0.68095555688223
H        14.82309068538946    6.74772664304131    1.05782344086679
H        14.99797054640083    8.10747605896549   -0.05358188301735
C        11.66964416021141    8.12754053969148    6.03652978582364
H        12.53783340815913    7.49595556656619    5.86264671605009
H        11.09185094336139    7.70456698288629    6.85572008576062
H        12.01624573681541    9.11424996432683    6.33379498617320
C         9.58301772164057    9.08787643944560    5.00526970408396
H         8.97786052896211    9.15376833983888    4.10270637361608
H         9.87889513100641   10.09495103961020    5.28944945553026
H         8.96865827090232    8.67356247840173    5.80191667354953
C         6.04565421766629    3.64787190696098    0.81241644098592
H         6.03835064528697    4.00401067755465   -0.22033805604657
H         5.39787797482253    4.30819406204281    1.39368670662622
C         5.49592879422550    2.22771614676865    0.86230396239508
H         4.48365832728399    2.19435628626005    0.46627804069056
H         5.47601353434096    1.86233433275260    1.88678889335092
H         6.11757344134544    1.55729184587018    0.27280272532610
O         6.65110017594948   18.60870589499853    3.00681269848784
O        23.23183048079912   11.27425524704352    3.00660591243367
O        18.60865899601084   23.23194686210275    2.42042683730585
N        14.19745861445923   16.82633221310843    2.67902062264622
N        15.68547854239203   13.05672400582645    2.67910876684887
N        16.82630124818644   15.68557195241303    2.74807906536094
C        12.88523077911374   17.18198822324886    2.73826568805515
C        16.99770123016147   12.70107144455962    2.73855891658893
C        17.18193714025247   16.99776184155667    2.68794599249808
C        11.80047134186453   16.30686893362656    2.76856498229969
C        18.08247395952652   13.57617827119716    2.76883701690969
C        16.30682627788905   18.08252961162264    2.65736560005799
C         8.35440029947340   17.22123552533088    3.99028843744729
C        21.52870425035099   12.66187660894214    3.99014136232437
C        17.22096699789668   21.52895694132012    1.43678181161513
C        10.44501247994587   16.89478113872724    2.81945751972179
C        19.43794382580893   12.98826179035272    2.81956660645976
C        16.89469620468519   19.43803070201961    2.60703217856172
C        14.91650594017902   17.98134688882904    2.67638964196086
C        14.96642747053022   11.90171670351666    2.67645936282135
C        17.98129076972853   14.96649669644429    2.75000947512393
C         6.64757976744185   19.90099304412021    3.59068274193387
C        23.23534802427350    9.98200763647984    3.59055924739116
C        19.90102239086917   23.23549749340233    1.83671897863988
H         7.00022056293394   19.84795226138241    4.63140911358597
H        22.88274359952098   10.03511735855746    4.63129481509062
H        19.84797379210309   22.88366417802586    0.79573219293704
H         7.32883650438873   20.56725638622109    3.04145183065837
H        22.55405947842004    9.31572165519371    3.04139419058666
H        20.56697297669590   22.55358920277002    2.38547808858274
C         3.72609456253191   22.41468780740916    4.06620231392923
C        26.15678291148620    7.46825083200701    4.06600898977667
C        22.41550925819580   26.15662630758663    1.36302764380223
H         3.06424089373476   21.76613891248032    4.64457498589915
H        26.81862926486864    8.11677603457440    4.64441844554614
H        21.76720032677564   26.81876120480262    0.78470051990082
H         3.37243756984376   22.40965649711656    3.03266587078237
H        26.51045602880911    7.47331186353397    3.03247675695206
H        22.41032164668609   26.51014521406363    2.39659539067267
C         9.62045328973061   16.66282546362832    3.91184131579760
C        20.26265642513792   13.22030877072654    3.91181247387400
C        16.66249634530386   20.26293272872961    1.51498459004560
H         9.98742265244455   16.04441364688724    4.71724264251029
H        19.89577642363537   13.83876577249829    4.71721963460827
H        16.04402570328518   19.89612462522044    0.70955641671223
C         7.46130647746299   16.93703469997503    5.17486135940765
C        22.42192759165007   12.94615398295366    5.17459187398634
C        16.93659707218924   22.42231103959484    0.25247843800383
H         6.50364674597468   17.43722804064511    5.00283832742245
H        23.37955011192858   12.44589668085887    5.00251552167869
H        17.43696629752897   23.37986495349256    0.42460559233434
C        12.77057129537034   18.61247016542179    2.79297657510724
C        17.11235410294919   11.27058539986208    2.79315765068850
C        18.61244663655672   17.11243991936507    2.63384252289631
H        11.84854662747697   19.15460886982604    2.87069338402674
H        18.03438377159642   10.72845366943894    2.87086687055673
H        19.15459130274745   18.03444271162557    2.55597366535641
C        14.02936151096770   19.10823147574306    2.74972791268572
C        15.85354872005053   10.77484110269412    2.75013870338754
C        19.10819805970843   15.85363534800084    2.67702093434142
H        14.33861348436503   20.13451357554395    2.78622181447358
H        15.54430478923886    9.74856531102817    2.78685983546112
H        20.13446169762030   15.54436815718619    2.64032708954926
C         7.91212931572958   18.03306465180302    2.94173375106425
C        21.97081670935278   11.84993395333426    2.94161203622848
C        18.03302657291455   21.97090043667311    2.48527633106387
C         8.71245130204128   18.25065063208801    1.81622277009624
C        21.17035103907134   11.63226019088004    1.81621865127812
C        18.25085014069630   21.17027231181765    3.61053197339761
C         5.22664914906364   20.44747414416554    3.54187564236525
C        24.65626743811135    9.43550344348028    3.54173434232367
C        20.44805435222302   24.65616853860086    1.88662798136535
H         4.88913760479831   20.44592871271046    2.50388119326346
H        24.99377658221344    9.43708350329688    2.50373947957887
H        20.44642817278886   24.99291881808377    2.92485212778773
H         4.57357100876294   19.77643768479303    4.10236140198199
H        25.30936363394394   10.10650308111755    4.10224523835264
H        19.77735497824884   25.30985891447233    1.32649624143013
C         8.07609227652440   17.47769142202193    6.46751097956648
C        21.80724691826765   12.40568308311079    6.46736938879613
C        17.47688182651388   21.80767023978805   -1.04040067675657
H         8.28312062175912   18.54272222336001    6.38023108017965
H        21.60016770524169   11.34065483513610    6.38022554480643
H        18.54189297574036   21.60042440816085   -0.95337698208238
H         7.39255378437757   17.32627554179634    7.30041817369962
H        22.49087526669350   12.55716074573594    7.30019278497939
H        17.32543520992146   22.49144131122451   -1.87310066990996
H         9.01009795210270   16.96851361715234    6.69285863860445
H        20.87328150043237   12.91492111246043    6.69275991461107
H        16.96748524638092   20.87381050487974   -1.26589368659819
C         5.14695720892111   21.85876310404221    4.11532193511145
C        24.73592520991944    8.02418840728999    4.11512039271971
C        21.85944718808422   24.73584345046237    1.31348828658305
H         5.49677510432621   21.84947872471865    5.15053276005830
H        24.38608318106819    8.03342992899770    5.15032398980460
H        21.85029280436972   24.38621073307246    0.27822154792462
H         5.81164734911665   22.51622241544079    3.54946578340784
H        24.07124402332268    7.36676014824794    3.54921633507760
H        22.51663839881946   24.07085870273762    1.87929817502222
C         9.97401569441311   17.67834576413365    1.77510762737452
C        19.90879743674174   12.20459843132800    1.77521638641156
C        17.67849273474362   19.90871021124468    3.65139437205172
H        10.60688083915843   17.83040302493795    0.91366111339904
H        19.27582511967901   12.05250290794635    0.91385182457849
H        17.83069444891190   19.27562469590052    4.51266299830877
C         8.20456091673165   19.07104360795798    0.65395741506189
C        21.67808261299029   10.81175284251831    0.65396002765898
C        19.07144352575989   21.67793139407329    4.77278407738638
H         7.19048991518778   19.40491373974233    0.89216623614337
H        22.69217419071142   10.47788098664364    0.89205192902884
H        19.40528045574330   22.69206222262760    4.53477399055841
C         7.18990376632608   15.43585275254556    5.29172702172757
C        22.69337706100439   14.44733936996591    5.29126619375139
C        15.43541352224693   22.69390034428994    0.13602989833393
H         6.49909296559945   15.24340823670000    6.10990774874815
H        23.38428784476013   14.63983979053238    6.10934557777032
H        15.24285985786028   23.38483628158383   -0.68201380328913
H         6.74862510353850   15.06044465965668    4.37118194237817
H        23.13456613364136   14.82263038409746    4.37063306224020
H        15.06026604145991   23.13510239747167    1.05672165377901
H         8.10866370892469   14.88649332546776    5.48237786437871
H        21.77466044307412   14.99676209909584    5.48196633090655
H        14.88588888792821   21.77523474631493   -0.05461700379369
C         8.12616646658878   18.21174729167290   -0.60960047399115
C        21.75635021422216   11.67091877993920   -0.60969756415463
C        18.21240517982573   21.75606033741131    6.03653578579113
H         7.49448689248459   17.34376779462021   -0.43499821755647
H        22.38806376544984   12.53891263686166   -0.43527213655865
H        17.34437736011827   22.38774525110193    5.86221744568215
H         7.70298008150680   18.78917947544059   -1.42892854676848
H        22.17942275619987   11.09339357210484   -1.42902176080834
H        18.78996680558144   22.17910396356821    6.85585642193715
H         9.11269839920164   17.86479541899634   -0.90706396555154
H        20.76978542529555   12.01784507277732   -0.90706683792561
H        17.86554248571626   20.76946056587994    6.33386176152621
C         9.08726606920385   20.29878950384625    0.42015064179832
C        20.79531742248620    9.58400183679990    0.42040513596199
C        20.29922918007179   20.79518663429935    5.00617217765368
H         9.15357332283213   20.90445501471146    1.32234382524476
H        20.72910852997246    8.97842207774422    1.32266710559292
H        20.90477279959622   20.72912889904943    4.10387876883225
H        10.09420250402323   20.00263496783395    0.13574844086619
H        19.78835610355420    9.88016638013761    0.13611185344690
H        20.00313401901252   19.78817330679744    5.29035907352220
H         8.67273115424910   20.91274721996641   -0.37668476656929
H        21.20972497859290    8.96995606359562   -0.37642725407919
H        20.91328767936098   21.20953315475726    5.80302343097395
C         3.64744837623587   23.83626604460408    4.61785740205550
C        26.23540253185921    6.04665254447554    4.61762023509110
C        23.83717662852390   26.23512940642504    0.81170343229573
H         4.00260991221522   23.84236593935696    5.65094267476271
H        25.88022512263649    6.04052460199623    5.65070179205876
H        23.84350704825225   25.87976350317901   -0.22129074420206
H         4.30844596318855   24.48455679382391    4.03795182713252
H        25.57441085591908    5.39838786468766    4.03767646276047
H        24.48533401180104   25.57412669713397    1.39174953129746
C         2.22748233194681   24.38636347141886    4.56722224633464
C        27.65536736154609    5.49654550851767    4.56698916519143
C        24.38722032694501   27.65507498730090    0.86224383475779
H         2.19391634122855   25.39835954983280    4.96388559605179
H        27.68891143312431    4.48453579332451    4.96362636308422
H        25.39937383024740   27.68863844179522    0.46613172691357
H         1.86286304859985   24.40706819091592    3.54250876087332
H        28.01999262128939    5.47587108019031    3.54227413372839
H        24.40746752422184   28.02011979308754    1.88677554583675
H         1.55637866663460   23.76453004966298    5.15569817397082
H        28.32645944518780    6.11836479112929    5.15549801662604
H        23.76582501206298   28.32616443189552    0.27334258965492

