92
CSD_code = OCIQUO | q = 0 | S = 0 | Stoichiometry = C39H45N4O3Re | MND = 6
C         6.46916996090965    7.96618029890135    1.55184357845995
C         6.16645385466749    7.46395361127534    0.25573546491070
C         7.25929253928975    7.73765138842848   -0.55396880226091
C         8.21618045368006    8.43620222093756    0.22878674039700
C         9.41543963375965    9.02160855118041   -0.17814043675068
H         9.72573959646981    8.76397886976467   -1.18224691665811
C        10.25049567913696    9.88483521954558    0.49555024459242
H        11.14754395185816   10.12653311623670   -0.05978343518377
C        10.22002645142335   10.52025028790821    1.74821817913095
C        11.38448868260106   11.22488629666775    2.24331231237210
C        11.11470843440696   11.60521802887559    3.53134471630113
C         9.77280250778064   11.16451966112366    3.80442376445503
C         8.93209394605151   11.27578780635614    4.93343889047932
C         9.14878953292673   11.39633709298856    6.35344736837756
C         7.90250447192942   11.47781174711421    6.92508008532573
C         6.94615409040247   11.32071984259756    5.86364028927753
C         5.55453612236242   11.19000414114132    6.04642952805166
H         5.15212550007991   11.70472449256550    6.91045607140808
C         4.69413583228248   10.35694481317509    5.38421113171844
H         3.68840005953000   10.32404449280783    5.78539480969390
C         4.93474543884991    9.36661793776076    4.40260221152384
C         4.19749966643768    8.13673875288460    4.38363271706462
C         4.70930437469005    7.38216851400450    3.35451603492913
C         5.71198987464628    8.18591057027250    2.73219634497921
C         4.85268825692729    6.95048644007187   -0.24147815990814
H         4.61961009197883    5.97031774867241    0.18156705053581
H         4.92067626332596    6.82139303490750   -1.32232441745921
C         3.71703151852672    7.92784086829225    0.06353565402283
H         3.56403659348362    8.02530662666391    1.13466039836400
H         2.79168752600172    7.58033644713437   -0.39041910307819
H         3.95381694728965    8.91134193358664   -0.33562956834831
C         7.40114778764723    7.47182532743080   -2.01580317740680
H         6.81467132409226    6.59443127952950   -2.29489664568904
H         8.44674548147313    7.25430596201092   -2.24576469176491
C         6.94218531019703    8.67932094668271   -2.83725041609516
H         5.89723567668875    8.89916975821648   -2.63559477230079
H         7.06041437561484    8.48249204453090   -3.90048647204787
H         7.52571731934467    9.55809187749228   -2.57476337792040
C        12.65738224330408   11.43993643401330    1.49432473266288
H        13.14329470954196   12.34910274356471    1.85345382126930
H        12.45299514401871   11.58689643767963    0.43180017212965
C        13.61213360261848   10.25701598180573    1.67770314909031
H        13.85230549306290   10.12710046474460    2.73099826913496
H        14.53651054109903   10.42637525216171    1.12989535600652
H        13.15711607927359    9.33703785624326    1.31607016097412
C        11.96663616219028   12.49102025574626    4.37709131815248
H        12.89198763631868   12.70806151841467    3.84040431162339
H        12.25118611823670   11.99234499823640    5.30316692784541
C        11.25081225562918   13.80999688690033    4.67657180508862
H        11.00863895862599   14.32083535490657    3.74692865749086
H        11.88789941774999   14.46007819860879    5.27310776562762
H        10.32232247801446   13.63983771171305    5.21643310632477
C        10.43141543353344   11.26709281191624    7.10704129112177
H        10.21182123214137   11.29726980707266    8.17589430033773
H        11.09597947296272   12.10500663799287    6.89464915758586
C        11.12937232753792    9.94292354224813    6.79012098404114
H        10.49421994303548    9.10707024678077    7.07800210749368
H        12.06642778580623    9.86676786731741    7.33819814328064
H        11.33923104162978    9.85561992480227    5.72646962260530
C         7.54393807230190   11.56714011744216    8.37054580666626
H         6.66284238961650   12.20291754444469    8.48742544957781
H         8.35972444365691   12.03113357240253    8.92861902945855
C         7.24774759343232   10.18392717238100    8.95548566055280
H         6.42884263800158    9.71268950708503    8.41542360154918
H         6.97278412355966   10.26485753590835   10.00482100419394
H         8.12330929983312    9.54301926174399    8.87535787967987
C         3.09365736602123    7.75358774528298    5.31434111219165
H         3.06128588630193    6.66757744667775    5.41857987338396
H         3.26989652816249    8.17441887450215    6.30634521775282
C         1.74540315360910    8.24417718421431    4.77848688732308
H         1.74927676445397    9.32514114618657    4.65765921660347
H         0.94325734883602    7.97237724539148    5.46122785605702
H         1.54141134159080    7.79797709330047    3.80757007872889
C         4.44490863755999    5.93541726253089    3.10054668254394
H         4.66475904521336    5.68344876061582    2.06687243485317
H         3.39440830218746    5.71029565206919    3.29438139089798
C         5.32992229849327    5.07106732274342    4.00416515329360
H         6.38034868954459    5.25879730756482    3.79060155167893
H         5.12639186358437    4.01561374617043    3.83684677929408
H         5.14972745994282    5.29753047546037    5.05283869123782
C         6.39581562096410   10.98154845341420    0.83437503074431
C         7.84165132321770   12.89158143850440    2.27180624397834
C         5.19420026536565   12.16926383815910    3.01360842208019
N         7.70489899575437    8.52891919214391    1.48282766421715
H         8.20298761883128    8.95759026918322    2.25880540757260
N         9.24454775555982   10.55982637741095    2.69396098679083
N         7.59155655175979   11.19951549478461    4.69278693923957
N         5.86924208199492    9.35486485179462    3.41522844984353
O         6.12360477472826   10.78706594540550   -0.26692223149520
O         8.46952520718409   13.82619631089030    2.05170309588619
O         4.22001069638866   12.74516718599588    3.21507017798146
Re        6.87674265725703   11.25856968559964    2.70051010225421

