65
CSD_code = OCIVAY | q = 0 | S = 0 | Stoichiometry = C29H33ClIrP | MND = 6
Ir        5.45345119483371    0.05886962198133    5.68746804207458
Cl        4.89506722785214   -2.02604536700521    4.79955926370116
P         6.17533212233784    0.39284518412238    3.49170394596979
C         4.90921633857387    0.08562582102208    2.17964621330334
H         5.39297963539439    0.14405167523980    1.19903012706317
H         4.57894336970410   -0.94584658437351    2.34593933529180
C         3.72490222377606    1.00209492812219    2.24031695795690
C         3.19560190916620    1.55158364260097    1.07788545001081
H         3.64242365913028    1.31393147537818    0.12218937096812
C         2.09657785571236    2.39147017191482    1.13118550589040
H         1.69821968544597    2.81167258499200    0.21898581006312
C         1.50921134004011    2.69301475106238    2.34774476447499
H         0.65563372614511    3.35334738312395    2.38925730590891
C         2.01696884195731    2.13413312753669    3.50876275724626
H         1.55562880357355    2.35361386257292    4.46051905308574
C         3.11141292847790    1.29179554857257    3.45227812449539
H         3.49686068320893    0.83629593996615    4.35787474069132
C         6.87509095521235    2.05619773413112    3.00393202673077
H         6.10328798406044    2.78542575409109    3.26393707704287
H         7.73775375238527    2.21746957050560    3.65571141651917
C         7.26750349289803    2.20382551076513    1.57290787233813
C         8.56094626180019    1.90645007505786    1.15805362627826
H         9.29322614105460    1.60436474575981    1.89229922945974
C         8.91835410111927    2.01547300317603   -0.17387453781615
H         9.92694798660166    1.77856030851169   -0.48033650586191
C         7.98923538869362    2.43286519413996   -1.11176773486413
H         8.26638951646393    2.51427484420231   -2.15221605888747
C         6.70766061415849    2.76238737727401   -0.70391156783786
H         5.98299723914433    3.11066642381011   -1.42551750597951
C         6.35131075608952    2.65310562409968    0.62811947544329
H         5.35596057557931    2.92817648676295    0.94513562091932
C         7.46119608875605   -0.79495333917003    2.89169797829525
H         6.98188605750959   -1.77775538345557    2.95652038535283
H         7.68895684524031   -0.57932052758646    1.84305783010633
C         8.70684401853476   -0.79146443021626    3.72487127128889
C         9.96040184498967   -0.65454131192873    3.14135200815948
H        10.04524672843196   -0.56550592468202    2.06713664503296
C        11.10552425392441   -0.65372279276469    3.91975630565477
H        12.07245459528003   -0.54246580224152    3.45057343387225
C        11.01396174855712   -0.80093313922116    5.29254810972590
H        11.90730782011716   -0.79876561992607    5.89948151848783
C         9.77067492026099   -0.96672138586767    5.88036716409180
H         9.69390420054390   -1.10758528849895    6.94869586486209
C         8.62878610157387   -0.96393394758361    5.10203053723598
H         7.65780234399524   -1.11384956167310    5.56013812468456
C         5.27758329483108   -0.61166273051275    7.73624799363248
H         5.48533294253314   -1.67933707230188    7.74264060899706
C         6.10036440173169    0.20320236956276    8.71096304215968
H         5.42650265513760    0.76589557651001    9.35875735862343
H         6.67028761660924   -0.47434279432709    9.34897852337459
C         7.07741431279654    1.15603560144817    7.99647680145020
H         8.04118452285844    0.65778730161645    7.87920638933249
H         7.24872838672884    2.04881974918159    8.60772996648820
C         6.60643366965209    1.56927937893747    6.61951543378345
H         7.42652448200913    1.90785733559772    5.98677436309607
C         5.32646303753168    2.08324379320115    6.34594378759324
H         5.23968462582921    2.76437341125687    5.50190025020576
C         4.28989199384942    2.31931917144509    7.42763340558027
H         4.79832244297516    2.56998187347169    8.35977402042221
H         3.67893397952664    3.18087253084149    7.15286192943078
C         3.36777512688955    1.10169551960965    7.63038407803205
H         2.48431790951608    1.21464518625318    6.99939159182778
H         3.01968874971600    1.05979261728881    8.66785468395797
C         4.02941103661875   -0.20936833076588    7.27417368901180
H         3.32831093435969   -0.98586845261210    6.97384570446871

