67
CSD_code = OCIXAZ | q = 0 | S = 0 | Stoichiometry = C28H35ClP2Pd | MND = 4
Pd        3.68769482836556    5.57543155569304    5.82317852930004
Cl        1.66952712985194    5.68789451284315    6.96501023706630
P         4.83187879389757    7.04499558589339    7.04814545688831
P         3.09949132157692    4.10026935880512    4.25653573048254
C         4.10981496217508    8.55688593701484    7.87837018177352
C         3.13114784220003    9.11488612354149    6.84155144923917
H         2.40899844659489    8.34244282753815    6.56291559923360
H         3.65680173329382    9.44282186495108    5.94299847171892
H         2.58262113275975    9.96341025671323    7.24703607703647
C         3.34926277155939    8.06000565762207    9.10630611395871
H         2.78536257737942    8.87367786559787    9.55951278752956
H         4.03505594648711    7.65561013571662    9.85064626001016
H         2.64824517502433    7.27597582333130    8.81742650773155
C         5.14798239253877    9.60614823284501    8.26280773590057
H         5.73387288518446    9.92164445148317    7.40118295126661
H         5.81998521931155    9.22946181167215    9.03041464032067
H         4.64178145262764   10.48316245238773    8.66513486564802
C         5.72611907989903    6.06445762364148    8.29299043771728
C         5.26505432347273    4.76067711582398    8.47771543923145
H         4.39653960067995    4.40930109414802    7.90313083591936
C         5.89053811098110    3.92109787524272    9.38108776251318
H         5.53171985960761    2.91201476857558    9.52118829173710
C         6.97875641957044    4.37656998367555   10.10760319999223
H         7.46749639542966    3.72379019276760   10.81566099562780
C         7.44586559699365    5.66776197913572    9.92326398091189
H         8.29757373193839    6.01843413715613   10.48809858404092
C         6.82739273768881    6.50930247440479    9.01614281828890
H         7.20858204909019    7.50966637748001    8.86954356610105
C         1.78700119007618    2.77573611374045    4.38888671338425
C         2.02337735800168    2.13475762050616    5.75791849483599
H         2.03260240723154    2.90800778647278    6.53089332719120
H         2.97494521198638    1.60226779207289    5.78396446756658
H         1.22932826385547    1.42813415714703    5.99325432055937
C         0.44295405288342    3.50214632321691    4.37345759139603
H        -0.36830868162083    2.80576037178087    4.57931042062814
H         0.26416616100096    3.96666209194000    3.40365235543473
H         0.43068695695032    4.27900132709919    5.13910131791446
C         1.85955331430245    1.73491738610526    3.27683071683912
H         2.83339096218166    1.24870113049255    3.25002105354439
H         1.66049401812637    2.18677103290634    2.30747510100808
H         1.10499033548660    0.96820392718892    3.44976176835514
C         2.71478667330057    5.11836574632933    2.79718730432644
C         2.37928804760595    6.44653000014622    3.06477517468964
H         2.33916785296899    6.79183818247282    4.10672982539691
C         2.09128016444205    7.31623479938955    2.02915784908896
H         1.82946623262462    8.34272848442632    2.24043067807759
C         2.13974203756888    6.86872957700554    0.71858388732142
H         1.91563759814537    7.54578647248581   -0.09261117062916
C         2.48207467761882    5.55449922859276    0.44603163610751
H         2.52566117802831    5.21009344938597   -0.57724754817821
C         2.77190598835944    4.68038516360957    1.47886209714267
H         3.05026910382784    3.66104748399705    1.25269933870512
C         6.17076341451157    7.60372039994809    5.91833747039081
H         5.79946761314977    8.44424406401327    5.31918641535621
H         7.06618303457272    7.92761584454634    6.45672004785059
C         4.68965114392915    3.29466271273843    3.81034537701602
H         4.87112211644171    2.47061887277546    4.51163299451703
H         4.69642299857145    2.89343249227536    2.79306293390623
C         5.45642709091786    5.44645545238358    4.85206032294374
C         6.44579952971926    6.42097246667373    5.02382391890720
C         5.73029758082132    4.37022523624042    4.00034137684557
C         7.66583854053866    6.31524233163879    4.36881742970428
H         8.42144385556083    7.07494627090452    4.51768638183191
C         6.94794484552270    4.28219920628736    3.33875370246376
H         7.14008653087002    3.44693854581492    2.67870233572305
C         7.91703703931868    5.25037239898827    3.52408924352440
H         8.86479104441004    5.17524998056582    3.01141382111686

