125
CSD_code = OCIYAD | q = 0 | S = 0 | Stoichiometry = C48H70N2O4Zr | MND = 6
Zr        3.13421927071648    3.12245766854126    5.52974822824932
O         2.20736759889579    4.61828914537824    6.26761910650170
O         4.76766079081947    3.76398188135150    4.78492834417176
O         2.27268706589605    2.77731027313802    3.77404915907633
O         3.26806335361557    2.31779607098036    7.34160684233208
N         0.97518748348688    1.79926827004060    6.01935484952757
H         0.27847688399404    2.30360134136639    5.47242243708256
N         3.89857680238343    0.95821889470114    5.01244515057055
H         3.36557426893085    0.41190931347692    5.69852220291329
C         1.42292054127024    5.58990665324861    5.65675776827374
C         0.05276915538318    4.98662763803955    5.27493215112313
H         0.20817180453286    4.23228782979556    4.50275267434239
H        -0.61536266816800    5.75471632294274    4.89066783269883
H        -0.40011699279415    4.53589924393120    6.15821275297814
C         2.11334171118539    6.11370793696873    4.37389312350256
H         2.79648963348523    6.92631426353717    4.61177812927365
H         1.38053954057711    6.47807905678836    3.65630099567752
H         2.68349473651581    5.28405337007330    3.93668264646593
C         1.19544937033509    6.74744980949366    6.64966224022816
H         0.68402914425573    6.36843741710120    7.53188832670965
H         0.59853883393408    7.53460485871106    6.19570035484260
H         2.15384292864120    7.15778874887051    6.96047566676346
C         5.75407154503625    4.48532549209573    5.45328271318878
C         6.92396930668467    4.76157634524444    4.48889957819305
H         7.34673262929838    3.81950253212529    4.14922436738189
H         7.69675748130230    5.34424822745280    4.98401610247951
H         6.56076301229959    5.30841329091603    3.62159417412029
C         5.17874515784098    5.82999532433139    5.95086389055654
H         5.01326633502729    6.49103867761053    5.10148821797565
H         5.86313728594330    6.31751883839322    6.64241693909868
H         4.22311073071848    5.63515690092721    6.44764193789995
C         6.27104376535798    3.67795486206762    6.66552295504797
H         5.41300137380380    3.25265047202468    7.19217656037555
H         6.83901314235441    4.31262429635923    7.34281645649195
H         6.91449464186745    2.86779583478107    6.33013227331556
C         2.63112859270675    1.72251184021386    3.06465571869844
C         2.24058635047564    1.50544697282117    1.71746479874033
C         2.60202716553286    0.31948506303167    1.09844444280668
H         2.28962405601625    0.16661336339325    0.08202397122140
C         3.34755092207913   -0.67994867811672    1.71443246944888
C         3.76528576363845   -0.44362952863022    3.01441203550427
H         4.37206147034928   -1.16327224821654    3.54583911754078
C         3.42822114304477    0.72829247261740    3.66671050423397
C         1.47173892701942    2.58807282095792    0.96625968836410
C         0.13966670287150    2.85589862543259    1.67788828065908
H        -0.48319299786125    1.96268972123583    1.66032614337881
H        -0.39947745098155    3.66211556699323    1.18402877132435
H         0.32707126369754    3.14240740644309    2.70817764410242
C         1.15925053314539    2.21981523666450   -0.48790280922235
H         2.06965688588495    2.04405901886417   -1.05575535418165
H         0.62829523112886    3.04688439752135   -0.95581317576813
H         0.52406729944210    1.33874545697700   -0.54708739696056
C         2.32750555454996    3.86275701401468    0.95840917798226
H         2.60637195329736    4.13735695332240    1.97246412462493
H         1.77791100476123    4.68713171512657    0.50781417823572
H         3.23718454815347    3.69622656863897    0.38476473201612
C         3.74135758196871   -1.97670685246281    1.02368852956354
C         3.18201278890325   -2.08716938195222   -0.39707079722296
H         2.09537153043515   -2.04645586161809   -0.39288097154326
H         3.48139104242068   -3.03893418811979   -0.83200246656830
H         3.56639210368453   -1.29304103063166   -1.03248699746106
C         3.21049880094205   -3.16457370057260    1.83768531280589
H         2.12579065965558   -3.11934668278945    1.90112271850890
H         3.61018059915718   -3.16047317767235    2.84760923557903
H         3.49113093792596   -4.10231085539817    1.36203327199883
C         5.27297130688609   -2.04849908731406    0.94150151691147
H         5.58183901796080   -2.96226016512259    0.43758191077993
H         5.72103936205557   -2.03535971169558    1.93100444834287
H         5.65838386277366   -1.19828969040150    0.38323881839682
C         2.15641150418507    2.44307869764388    8.05135943028963
C         2.10322242092175    2.81946222190912    9.41451605002541
C         0.86813631764410    2.87961417421352   10.04346849655557
H         0.84563044028385    3.17000029678015   11.07755747249015
C        -0.33797864567060    2.59909883075556    9.41240300345498
C        -0.28196976381012    2.23850503820338    8.07295748201443
H        -1.18297832301856    2.01437698933754    7.51746711481275
C         0.93020463112247    2.16120192325361    7.41564721596902
C         3.38152163379768    3.23339622312196   10.13363090532918
C         3.17940990202319    3.52908398731645   11.62408952955545
H         2.50203458780606    4.36559693438935   11.77769970844235
H         4.13882238200317    3.79428483295148   12.06444600873445
H         2.79631422919510    2.65766484818879   12.15070260585884
C         4.42805525392314    2.11589776914503   10.02543940726479
H         4.06794029993138    1.22018713266149   10.52931745181507
H         5.36025775801744    2.42508225209581   10.49435528339449
H         4.62496770216937    1.87641924628593    8.98526363240360
C         3.88346668648953    4.51605618646104    9.45269522656832
H         3.87573980035248    4.39635414796428    8.36970943057402
H         4.89193276103710    4.75754766024005    9.78304370060787
H         3.22559960872322    5.34651413250324    9.70278399398613
C        -1.68694787289019    2.68518599597584   10.11086969710786
C        -1.56905115999848    3.10281343489175   11.57894568509835
H        -2.56080391739655    3.14163846144082   12.02564026902792
H        -1.12107252446310    4.08935837396777   11.66958451612771
H        -0.97490609633100    2.38733793297234   12.14220561777740
C        -2.36848846875191    1.31036553881122   10.05969434322130
H        -1.74868650317039    0.56698661877747   10.55634281956154
H        -2.53084963230058    0.98676281495668    9.03534483638795
H        -3.33295596507988    1.34847637718320   10.56218233067601
C        -2.55844173503024    3.72334665491229    9.38910662305918
H        -2.74684023883729    3.43435104718249    8.35882999211362
H        -2.06250414282991    4.69166706593471    9.38682870314389
H        -3.51727525016314    3.82679419996817    9.89317152442989
C         0.99083074736241    0.43780119181667    5.69359239471897
C         0.47960893638819    0.00533432449414    4.46835412949699
H         0.01824751257030    0.72109030260202    3.80351698028913
C         0.57565191267169   -1.32125212466045    4.09847225878213
H         0.18222610102212   -1.63494821030437    3.14365101369067
C         1.16599786221387   -2.24579359865345    4.94532069300701
H         1.23850987319733   -3.28205413488479    4.65420865753598
C         1.64927828383314   -1.83229158879892    6.17499068678541
H         2.09523955273516   -2.54908364352366    6.84909570407526
C         1.56551177138499   -0.50350317978505    6.55428634963590
H         1.92553988072503   -0.18652209596335    7.52427338053034
C         5.27757450596138    0.77650011170532    5.22704431817313
C         6.20620211052284    1.09834129739281    4.23689421516950
H         5.85825701484785    1.51010145891905    3.30062965674007
C         7.55507027961987    0.89816026756813    4.46420057244033
H         8.26879573359394    1.14426420853646    3.69130977205513
C         7.99891632659584    0.38166208554542    5.67225607995807
H         9.05346269129267    0.22551687645723    5.84155433410363
C         7.08023062620271    0.06799919717456    6.66068491330347
H         7.41761410788899   -0.33354989759798    7.60477404014814
C         5.72767132595830    0.25340138527784    6.43916425237702
H         5.01042298443862    0.00157124787734    7.20986674682506

