83
CSD_code = OCOCIT | q = 0 | S = 0 | Stoichiometry = C42H30Cl5O3P2Re | MND = 6
Re        1.20855382138150    6.99722273918720   11.41039325693854
Cl        0.37610312850619    7.28644893664504    9.27452504512299
Cl        5.46930205952491    7.38747380029591    9.10135997309557
Cl        7.99244178849208    7.21147506892204   10.93591610601653
Cl        7.65151197436053    6.79203258402413   13.99287866300546
Cl        4.80683797897152    6.54079379757996   15.24593892968428
P         1.47024922710022    4.55182454220861   11.18824088548141
P         1.38117782146981    9.42327712281420   11.83609720312669
O        -0.24873238102174    6.87346698116175   12.20913101950153
O         2.90495070711332    7.12129639719065   10.69074073052983
O         2.64385679232056    6.76119666324960   13.18143322052274
C         1.16289353602160    3.62404148057369   12.71837759073392
C         1.47490864542519    2.26792183770706   12.77362389409735
H         1.91059482815427    1.77920248218324   11.91281234222557
C         1.23036225408007    1.55483771499300   13.93168058777310
H         1.47583280387768    0.50401630230304   13.97787480182963
C         0.67218455242863    2.18732847470080   15.03239694752346
H         0.48674396109529    1.62650137925321   15.93649446404660
C         0.35148591090016    3.53319260949815   14.97339766607770
H        -0.08600631669817    4.02255626249798   15.83052413446383
C         0.59261748353823    4.25459786639587   13.81678473192876
H         0.34641222662685    5.30598291165023   13.75414340666364
C         0.37780648901253    3.72397803221393   10.00287343327753
C        -0.92427834782083    4.21046605015003    9.91989247762609
H        -1.20179386094387    5.07440020704801   10.51329364029462
C        -1.83082398664652    3.60302697675342    9.07209891326889
H        -2.83837948951176    3.98300547624232    8.99902988897507
C        -1.44207441969996    2.51254245411717    8.30955107155576
H        -2.14819660089880    2.04140259349264    7.64202255369158
C        -0.14743600137989    2.02715789164690    8.39528090163845
H         0.15321041434848    1.17860911597097    7.79825828098579
C         0.76687359347555    2.62809935753401    9.24218706122596
H         1.77946943893674    2.25323863693754    9.30249030526695
C         3.17030701358383    4.16151214279222   10.71871641546419
C         4.12824711736019    3.85526782143281   11.68200710466271
H         3.83429478099512    3.73804017845688   12.71593014683216
C         5.45348102533947    3.71381825933558   11.31247112181171
H         6.19630910754480    3.48331342739483   12.06135891722782
C         5.82865632513018    3.88094148313406    9.98910083913312
H         6.86545443812875    3.77833293814813    9.70636499410010
C         4.87900238336503    4.19829340429776    9.03015374812608
H         5.17560897470288    4.34329734460255    8.00213868474968
C         3.55385046781070    4.35271734465254    9.39200085222840
H         2.81034859202872    4.63596901049547    8.65782110296947
C         3.05276453893966    9.99296172797536   11.45787116682971
C         3.41505353546300   10.14863762217940   10.12057267326020
H         2.66843380385277   10.01769831695357    9.34756518406812
C         4.72437871274933   10.44797241442244    9.79388277918501
H         5.00513143971563   10.57144520052825    8.75862917322458
C         5.68004687327969   10.56552977633375   10.79150740682588
H         6.70547020501760   10.78085335709324   10.53157331152993
C         5.32656909008878   10.38826468324162   12.11948953447229
H         6.07481961317775   10.46370879031767   12.89421324516976
C         4.01659583551419   10.10052508463795   12.45706801490339
H         3.73945776004407    9.94988120772076   13.49134963922999
C         1.08994347576768    9.90626988862140   13.56200724123640
C         0.68646502056014    8.96414935878029   14.49952052169817
H         0.55155053529577    7.93606089650731   14.19350643940690
C         0.47221845684879    9.35108388276647   15.81149999496595
H         0.16596325162756    8.61933924411592   16.54376690696700
C         0.65315099069063   10.67204589858479   16.18530198286045
H         0.48840395488944   10.97150612082639   17.20975577264174
C         1.04514568856602   11.61479936278899   15.24668517266321
H         1.18218957094042   12.64549417502988   15.53906443742489
C         1.26302811290948   11.23678220508850   13.93572219054351
H         1.56981718327437   11.96737096755333   13.19970936477776
C         0.22551609475824   10.48021722045842   10.92530161658856
C        -1.06442637987779    9.98168381256133   10.76108016679239
H        -1.29425064007396    8.98757128090784   11.12809650704162
C        -2.01887121775691   10.74655871238230   10.11829520438195
H        -3.01750308668494   10.36020346433217    9.98267784052652
C        -1.68983540619231   12.00560552172221    9.64019657221574
H        -2.43376479916134   12.60154908024953    9.13264701232902
C        -0.40673152790772   12.50097540072561    9.80452713794699
H        -0.15248508395644   13.48094943734248    9.42785843671380
C         0.55550236967245   11.74279159952768   10.44797225487790
H         1.55936971405747   12.12689787820992   10.56805281103670
C         4.03224028920266    7.05676061781098   11.34565748148666
C         5.30099905504051    7.16069135758336   10.79588979449082
C         6.42094090832073    7.07888601428959   11.61792863054686
C         6.26393746356483    6.89042629293532   12.98646080727260
C         4.99746315859737    6.77919746165692   13.55078705509504
C         3.85148118426607    6.85653656302777   12.75630046393443

