61
CSD_code = OCODIV | q = 0 | S = 0 | Stoichiometry = C17H39NOOsP2 | MND = 6
Os        4.44873100358123    5.41594005247035    7.92820215225656
H         5.89655929829519    5.01326398436901    8.47799332821414
H         2.96386119782353    5.51767630507528    7.33822980290177
P         3.66061097848838    5.15344746428441   10.06859491123563
P         5.16856449516324    4.98328839765946    5.79943911781631
O         4.88999750800560    8.41153279214148    8.03339324827814
N         4.05534017995420    3.13738494881643    7.87174693651203
H         3.09037608393226    3.09196245333856    7.53106469772664
C         3.20946267697882    3.34334392445303   10.15661434715092
H         3.28721285561885    2.96258929376199   11.17748494761887
H         2.16601431203176    3.26468169411534    9.83282020319396
C         4.09034675822782    2.54049378829200    9.20442515043735
H         5.12840826939645    2.55801057967431    9.55068758855131
H         3.75613189132549    1.48811305582739    9.17414160091596
C         4.90578246473059    2.44422384558660    6.90729755094284
H         4.59834616452574    1.38914582640100    6.79662075021818
H         5.92932290386051    2.46167305082859    7.29480906328047
C         4.84826179119761    3.15459593852418    5.55750792318441
H         3.84235376602662    3.05415171678358    5.13493375787693
H         5.56310812291113    2.71234659935403    4.85944898282837
C         6.95525887375947    5.13963849822814    5.25768870191461
H         7.02461842386195    4.89263771719731    4.19215301175566
C         7.38025221088076    6.58427481321816    5.50001419656433
H         8.45170969811021    6.70279164482294    5.34338815707652
H         7.14112859229479    6.86060082564321    6.52845005620096
H         6.85981692834840    7.26905333705367    4.83560673458543
C         7.85213055505256    4.19586033404491    6.05058677487536
H         8.89828086772381    4.40785207343702    5.83355443179501
H         7.66399318181132    3.15230092047341    5.80350492417706
H         7.68835511178550    4.34704140271803    7.11603984579929
C         4.19095640487851    5.63901296539119    4.33973085600038
H         3.19958476384295    5.19946017699148    4.52422708956656
C         4.03171060219686    7.15344860305155    4.42927021765486
H         3.19484639048252    7.48274435912600    3.81507178876721
H         4.92448637849434    7.66872300582598    4.08378252310106
H         3.84139596521361    7.44056474142220    5.46430804421183
C         4.67389896584727    5.20894424843535    2.95909868953122
H         3.92067294999776    5.46742867930306    2.21565692827914
H         4.84546905865464    4.13525996165185    2.90784684677563
H         5.59311837890468    5.72450150445100    2.69044089671880
C         2.11264783388528    5.93770146105274   10.79576341534865
H         2.46922611393142    6.89532282573902   11.19848951356048
C         1.45425737395658    5.14697696999623   11.92507476629617
H         0.71150027442132    5.77373484049476   12.41696326597918
H         2.17152869678769    4.82721019506908   12.67779326876127
H         0.94231545856953    4.26718407877604   11.54164688378936
C         1.10053356393293    6.24121615403206    9.69827269172177
H         0.26209874113642    6.80820065168765   10.10049310978558
H         0.71291130460942    5.32163026228717    9.26203074044486
H         1.57236349642899    6.81919836028121    8.90643996768405
C         4.79354132351851    5.41343931838396   11.54143024844128
H         4.19339292314434    5.35791195749402   12.45774001507876
C         5.91447163349883    4.38539379546694   11.61063908811991
H         6.61898578857334    4.65659278950043   12.39589273500605
H         6.45199855266967    4.36853657759984   10.66448880729048
H         5.53660530546611    3.38723831707284   11.82675648824602
C         5.37656771977800    6.81623954302619   11.39827843520407
H         6.02662735774499    7.05325855245882   12.23927001761485
H         4.59092930640508    7.56905440536600   11.34565324399659
H         5.95457873082384    6.87333170797381   10.47594350421846
C         4.72864147651656    7.25672171200936    7.98406301691538

