71
CSD_code = OCODOB | q = 0 | S = 0 | Stoichiometry = C20H45NO2P2Ru | MND = 6
Ru        3.50590964559493    3.53265732010717   10.14192350697939
H         3.47856415678134    4.09069713221270   11.57538312855234
P         5.78043279951753    3.75197922812794   10.09537859125351
P         1.25254085386569    3.84903269882366    9.84942059474283
O         3.36393225316039    0.70998662318696   11.11874203612798
O         3.18516687504488    3.38009266598250    7.94110468755622
N         3.59831051372717    5.52256515882445    9.30719416597420
H         3.60770206770847    5.08531913206154    8.36154823328922
C         6.03359646811436    5.39371414639887    9.24880813862627
H         6.95579411091379    5.88329524467009    9.57014604630867
H         6.10651948890876    5.18066719658316    8.17602514289661
C         4.82287138781588    6.28853715276735    9.49832078156526
H         4.83407895097146    6.67196353016296   10.52483833813839
H         4.85279578229394    7.15473245712909    8.81347229488477
C         2.39106792025994    6.33619389810457    9.39202878731889
H         2.47023829933740    7.21630597180203    8.72897931471285
H         2.28497783029161    6.69945862240781   10.42036629349401
C         1.18492070158794    5.49463225896962    8.98597102302080
H         1.24972976912740    5.27197364930600    7.91621913452465
H         0.25015881488570    6.02287344899976    9.18622301452265
C         0.13395048204495    4.06966703861980   11.33233950686193
H        -0.90944075254196    4.07029395186580   10.99670287567634
C         0.37862060590403    2.89872476393736   12.28041057802937
H        -0.21126291974827    3.01281248647379   13.18896181142555
H         1.43647742259461    2.87027070744280   12.54636300831206
H         0.12303901984200    1.94763580243390   11.82269518119551
C         0.42981831514048    5.37433919636548   12.06320519015240
H        -0.12843250547803    5.40972391281224   12.99783689694135
H         0.15091356426585    6.24566626034266   11.47452297902339
H         1.49200757066224    5.42170566945403   12.30063013642388
C         0.24494314522943    2.82237033157868    8.66325971704187
H         0.88751650426961    2.82225399774540    7.77586161927182
C         0.10779416278957    1.38447632114957    9.15471176666829
H        -0.17314350945310    0.72872186402577    8.33082439531366
H        -0.66357464137899    1.30460997986908    9.91877978069109
H         1.05376307854401    1.03494539748971    9.56762620860960
C        -1.11783856144060    3.39935495699275    8.29349150310723
H        -1.56624583121895    2.78205074870138    7.51551347917094
H        -1.04211454624380    4.41483840210115    7.91259491852759
H        -1.79517786182374    3.39643298756958    9.14531305739445
C         6.87100756808870    2.69102334236984    9.00344860882768
H         6.38718472371707    2.80257012768955    8.02258902658102
C         8.32563324305458    3.13481255776121    8.87937546983798
H         8.80900740825914    2.56193885892245    8.08890013745216
H         8.87193976800915    2.94895696261688    9.80120272153355
H         8.40941187818530    4.19015211211490    8.63053341452809
C         6.78238603712875    1.21815198660661    9.39410970075022
H         7.06134830344768    0.58499671943553    8.55317290893790
H         5.76442316949341    0.96772049459797    9.69274076870552
H         7.45315270139191    0.99191033568175   10.22040997283730
C         6.75407320829797    3.91815286362431   11.68070133987425
H         7.82274644867642    3.93086966520260   11.43877405677872
C         6.38782615325978    5.20285213394351   12.41530284258671
H         6.84190782155105    5.20554568048399   13.40504933275878
H         5.30631194130426    5.25380987399946   12.53553025771631
H         6.73466439528287    6.08748079231716   11.88533882720495
C         6.42391392939336    2.71447799533470   12.55823913350053
H         6.90284997277718    2.80757941981259   13.53181586149494
H         6.75112999412388    1.78426734480721   12.10257175311370
H         5.34284824579011    2.66202075235903   12.69818484280760
C         3.42196767134743    1.79880427528430   10.72705358409427
C         3.62093953906048    2.52854995348449    6.96296988137537
H         4.71854239628060    2.66230449218746    6.79191497396535
C         3.39624993130782    1.04451708959759    7.28770601462574
H         3.77840335836344    0.83322404259240    8.28550463051076
H         3.91134066919360    0.41192662304039    6.56730537398027
H         2.33439479012212    0.81067477297989    7.27001930714726
C         2.92671906612994    2.87355912372911    5.62885986328581
H         3.09391153312011    3.92051460061137    5.37845394061097
H         1.85375548642661    2.70626329167705    5.70658657890271
H         3.32258721555669    2.25319940149521    4.82799700934414

