34
CSD_code = OCOJOI | q = 0 | S = 0 | Stoichiometry = C17H11Cl2N3Pt | MND = 4
Pt        4.32201990554501    6.39377152062112   10.04700906056420
Cl        3.29626836227601    7.70281022013462   11.54347028002762
Cl        4.13016029977889    8.07088297007085    8.57612422950402
N         5.19056111544696    5.09002563843095    8.83348983954790
N         4.21675166624049    4.76536605954759   11.20944783755509
N         5.60518532790465    2.98354467270394    7.03694218681248
C         7.65735744539387    8.03959072231701    5.87443121840391
H         7.59148943599492    8.82228915937111    6.61463524828875
C         8.24371530407478    8.26313651540974    4.66434116394851
H         8.66231915127151    9.23045639994189    4.43068983055332
C         5.88623244148906    5.31192179108916    7.68304351163496
C         3.55825891560661    3.49902794892096   13.10794631820333
H         3.24683822896480    3.48942125175877   14.13938778140369
C         6.65348680140365    4.47197177810905    5.51935912516349
H         6.75657276664930    3.65022699140235    4.82786910082768
C         5.12132113334416    2.77939236959487    8.22064319578806
H         4.83745252847160    1.76315423940691    8.45306350172834
C         7.16388188059442    5.73369881066380    5.20618393798624
C         3.68007284918734    2.31824769464630   12.38288967969955
H         3.46052200905150    1.36625093698548   12.84061038187670
C         4.89175423166890    3.82083719680563    9.15680298178209
C         6.03892798203688    4.23324714950596    6.73748881666687
C         4.36140621140882    3.62483073711679   10.49151392988525
C         6.47168494890491    6.53974069471377    7.40957368055584
H         6.45818519813295    7.31326471095717    8.16296392046112
C         8.30871571654586    7.23604430246994    3.70067800494681
H         8.77790289647286    7.43671921393725    2.74894069959511
C         3.83396506596880    4.69902220024816   12.48221032994512
H         3.73309432330631    5.64663639930242   12.99472615710849
C         7.09295892152086    6.77777867241455    6.18159735302504
C         7.78649914409636    6.00441832414096    3.96405626315196
H         7.83315412076697    5.21439053316142    3.22903088275220
C         4.08781452121960    2.38158709631034   11.06561350891205
H         4.19316914926631    1.48199507778443   10.48212604170206

