69
CSD_code = OCOLUO | q = 0 | S = 0 | Stoichiometry = C30H36S2Zr | MND = 12
Zr       13.84887711112980    3.15196777255403   -0.96540668188710
S        14.65294996012799    2.21564268565680    1.18972324959257
C        16.01208381320038    3.07384251283917    1.90860289679472
C        16.84005751781460    2.22332780009475    2.62173848084386
H        16.58683786268069    1.17315746873919    2.63759531854330
C        17.96388287709620    2.67397222909719    3.30359274533968
H        18.58545706158622    1.97108491325707    3.83835163717954
C        18.26018981137680    4.00626396128797    3.28117761535712
H        19.12676139525009    4.39053929505730    3.79932849954444
C        17.43347124720282    4.92077213096329    2.59763450644829
C        17.77703476185155    6.28669704444378    2.65410659411599
H        18.66492772273594    6.56731461237981    3.20178732595458
C        16.99977818520046    7.23098156133787    2.04782149360079
H        17.24882680712690    8.28042482740576    2.10249600154747
C        15.87324858641039    6.82380932833927    1.34372575747454
H        15.24953024786682    7.55821354593290    0.85493018286689
C        15.50799783151086    5.49301076511857    1.22992485863523
C        16.27270302713854    4.47710779275556    1.87917340577644
S        14.04228695540166    5.29535691489988    0.27647405896737
C        16.00602810168721    3.99494737702006   -1.93107703152656
C        14.99881842092311    4.03201046868910   -2.94053017480191
C        14.63221292377349    2.68997447064778   -3.25915257099268
C        15.36613248896160    1.83329596469527   -2.38364808872973
C        16.23231476917571    2.63716113920919   -1.58825439701237
C        16.85631503771242    5.17503935996553   -1.55651244479814
H        17.56880203711237    5.37825972683317   -2.36074291351907
H        17.42432060869284    4.98869686308874   -0.64697814748502
H        16.25446206627973    6.07188410960279   -1.40884896136045
C        14.53943765809851    5.30589395833788   -3.59913553357920
H        14.08134203327335    5.97888801887175   -2.86348044974305
H        13.82080523551270    5.11116234463609   -4.39356284310311
H        15.38906276930381    5.83021581718944   -4.04136297839307
C        13.99440053764834    2.23830693156353   -4.54544794703482
H        13.44574153087685    3.04440591983424   -5.02486248176288
H        13.32752321875846    1.39101413085828   -4.40991249465837
H        14.78418731585931    1.92623157570023   -5.23478966904028
C        15.40768339026573    0.32849743720235   -2.39712623470785
H        16.42973683829891   -0.01579124515641   -2.56826078924306
H        14.78417463352913   -0.07608325884577   -3.19217551971711
H        15.07928945450308   -0.08594233095355   -1.43636378431421
C        17.35769585226337    2.08277809139475   -0.76284356123800
H        18.14173367185548    1.70294092852691   -1.42361950231085
H        17.02163864295353    1.25776832706487   -0.13339828801128
H        17.79905294381617    2.84493949549254   -0.12371187258756
C        11.67749105817612    3.11622707385889    0.14743779557110
C        11.91496063076672    1.78109044114106   -0.28711007693484
C        11.85042287413039    1.75350565127565   -1.71009470909491
C        11.59738534154986    3.07999969774212   -2.16067678870845
C        11.50854164032977    3.92283204641832   -1.01454383065293
C        11.51204381202348    3.55211769593446    1.57557422983775
H        11.58870728670660    4.63459831813774    1.66340520004694
H        12.27756140681953    3.10334269055688    2.21204736682654
H        10.53349817781678    3.24504653881991    1.95102688297936
C        11.99415575403408    0.55587893608934    0.58019357585835
H        11.03782625101191    0.02640345590500    0.57129355546173
H        12.22477048789540    0.82238300311629    1.60945481193703
H        12.76367621383020   -0.13310851633501    0.22458321880652
C        11.70855950333192    0.47020345889449   -2.48355873568789
H        12.60199057600661   -0.15355788163730   -2.42517984998132
H        11.47391706142441    0.65601184643088   -3.52948889051240
H        10.88338334891479   -0.10908386456468   -2.06273798696172
C        11.12123924669662    3.51618833281354   -3.51940752913405
H        10.06914085762433    3.80365886742372   -3.45259708916786
H        11.19775857773260    2.71646499420508   -4.25093770433275
H        11.66880037366011    4.38480461486074   -3.88767151377044
C        11.08607317546833    5.36518749102431   -1.06071255769340
H        11.53336983023884    5.87903422310421   -1.91363238332636
H        11.38003281699424    5.89150322878588   -0.15418136611068
H         9.99967873297952    5.43628487237046   -1.15746489228007

