52
CSD_code = OCOLAT | q = 0 | S = 0 | Stoichiometry = C14H29N3OS4Zn | MND = 5
Zn        1.29770671039254    7.67488885252877   10.71465035111295
S        -1.21204722296619    7.64233927853474   10.89741233228311
S         2.22424929604398    6.27237158465106   12.53312881500146
S         0.46129086871047    9.87364750564250    9.95169297443991
S         3.83538187000067    7.66855799179482   10.50123167112116
N         1.24499022853677    6.33886865188113    8.90476112990105
H         2.21715082109790    6.30830999695115    8.58755762377977
N        -2.17206893296882    9.96253360000905   10.09332834824140
N         4.86168227743447    6.23451731465708   12.46062322479723
C         3.75021963142917    6.68855560137809   11.88733749401518
C        -1.08206486635951    9.22886061515525   10.30037743194057
O         0.16995890416344    4.57572473968292    6.91748709071362
C         0.55643300189190    5.89018730470371    6.58274485603114
H        -0.10610108016341    6.20461469185398    5.77500261409377
H         1.59685300835717    5.89302130990890    6.21609921442446
C         0.43580098638112    6.82928805654146    7.78396276881842
H         0.76422507902208    7.83548110526974    7.51709196111807
H        -0.60481522330723    6.86916832603389    8.11624421345993
C         0.83709662146185    4.96537081121785    9.22258519689621
H        -0.19733681157613    4.99862743293208    9.57362944342001
H         1.46791011953196    4.57846025943265   10.02495640238776
C        -2.09092012039537   11.31168785615294    9.56836942005303
H        -1.24537808376439   11.36619433180664    8.87896913423710
H        -3.01129805085905   11.51066826773080    9.01493051987204
C        -3.49422011950285    9.45588035422634   10.40471717318651
H        -4.12178804496258   10.30509774355729   10.68338711076675
H        -3.41505936963650    8.77929082401702   11.25875344436707
C         6.17306416191562    6.59677938810137   11.96012322157401
H         6.86328652724456    6.61049984093611   12.80631764455347
H         6.11707638095865    7.60075624375481   11.53292559390951
C         4.81786093520267    5.38129772347025   13.63233764765521
H         5.70348188979862    4.74223343187490   13.61314306600665
H         3.92709478542242    4.75208413251446   13.57114202652369
C         0.94188026513434    4.07231240496517    7.98524259127880
H         1.99829424971164    3.99252798661098    7.67655660874963
H         0.55582689313774    3.07363354617679    8.19398087399438
C         4.77703496769344    6.19901823377145   14.91953383707942
H         5.64179895415291    6.85527758640742   14.98857542916802
H         4.77073057396210    5.53439831143899   15.77856346864463
H         3.87530490851254    6.80475342046134   14.94149022938828
C        -1.90649566060884   12.33633297777602   10.68349698558784
H        -2.72536382680980   12.28265185269991   11.39749563500616
H        -1.87205605660257   13.33711997846145   10.26283649199672
H        -0.97315259912257   12.14624412758950   11.20621090726798
C         6.65614028148669    5.61738630632865   10.89489192081520
H         6.68710787770444    4.60325605992218   11.28728674973068
H         7.65195923619739    5.89598341375025   10.56268632824446
H         5.98423310068686    5.64342090509545   10.04136083495558
C        -4.10135898311155    8.71101056201508    9.21986185352945
H        -4.15438665178163    9.35450393662266    8.34441592988870
H        -5.10350845055014    8.37546637089607    9.47016173884810
H        -3.49370525828170    7.84263685013559    8.98083042515353

