96
CSD_code = OCONIE | q = 0 | S = 0 | Stoichiometry = C43H46O2P4Pt | MND = 4
Pt        9.62649297490546    8.54394587531035    6.06062901158067
P         8.30346019695412    8.47511935899682    8.00378452425610
P         8.26067350250008    6.76280341006377    5.39865742709225
P         6.29523063524454    7.99815394922002    3.53906706604527
P         3.85679495827961    8.77780496061983    0.04945286387238
O         5.14075702280735    8.07042163507830    4.44906704159633
O         4.60874446371033    8.35404309923107   -1.13764124351630
C        10.99515636074455    9.93019539662775    6.77046426059224
H        11.24996842752465   10.68264599033907    6.01878742418978
H        11.93633090321624    9.45689270789719    7.07268047185866
H        10.61624280473233   10.46638047107584    7.64877993970688
C        10.88671866680070    8.37425725107727    4.42329791597193
H        10.60190488161175    7.52816236063732    3.78414487160158
H        11.93351364568220    8.22259721810411    4.70257509013224
H        10.84756699904819    9.27336709970517    3.80096769239760
C         7.41070172783421    6.84221238776836    8.01230785801719
H         8.16168381801174    6.10694212273778    8.32972240936475
H         6.60952163727092    6.85026096360463    8.75812249740189
C         6.90369042040116    6.47595009114292    6.62357334714379
H         6.06350945219726    7.10666238348226    6.32381193822008
H         6.58172982368734    5.42883646883916    6.58514354232247
C         7.33276878014591    6.49971672079732    3.82054562947687
H         8.05531892961580    6.38253647597763    3.01000111565205
H         6.66541506540026    5.63429281753156    3.86864703366354
C         5.76520319123197    7.89735154462121    1.78193280236476
H         6.59103880264269    7.78443280442841    1.08194946948807
H         5.13168897847250    7.00494492673455    1.70405166602955
C         4.94701295648772    9.14533149007367    1.48548009449531
H         5.58857661239129    9.98594779657341    1.20619007720056
H         4.36841349329710    9.43923607245550    2.36311381462593
C         9.15226834134862    8.30554049543398    9.60587500879463
C         8.53622971066908    8.54542548890646   10.82861926565701
H         7.51471074513402    8.89874775029147   10.86061480111657
C         9.23785945959320    8.34137005600697   12.00301929513775
H         8.76030481386861    8.53301537810790   12.95319375479915
C        10.54847315849597    7.89280952842371   11.96515717010322
H        11.09106624710730    7.73844966067628   12.88635798079684
C        11.16323522547405    7.64671889901336   10.74821124303094
H        12.18583730123924    7.30004745040496   10.71826169628396
C        10.46628014569093    7.85332377288365    9.57254747078976
H        10.93251571392975    7.68553581391261    8.60865063320313
C         7.02242880432836    9.70337742840203    8.40572233981033
C         7.47851745940156   10.94290706340289    8.85350119558659
H         8.54016359479630   11.08350849171166    9.01273461923170
C         6.59020736797881   11.97097329634506    9.09865026009695
H         6.95220041211472   12.92472483083616    9.45455983051369
C         5.23410943906681   11.77919491532218    8.88165103770250
H         4.53730470764704   12.58270919976749    9.06952823797946
C         4.77586292833489   10.55829910113954    8.41761878764529
H         3.72089814238669   10.40898388117478    8.23881956931550
C         5.66320322062156    9.52388434195543    8.17462030100876
H         5.28691787894513    8.58197062561030    7.80347978969647
C         9.19580358500106    5.21165630492526    5.58527259008940
C         8.72688220403073    3.95820284500299    5.20671114087565
H         7.76675717303260    3.85410199118283    4.72036045247148
C         9.49321080946706    2.83276665183710    5.44985914245108
H         9.12891288069805    1.86083616557896    5.14915237720408
C        10.72307323737704    2.94618794928765    6.07849619565123
H        11.31432873578536    2.06195924005489    6.26621227586103
C        11.19331010615226    4.19144777206101    6.46173836085773
H        12.15263519359458    4.28227537061181    6.94947985758964
C        10.43257325953866    5.31836476498891    6.21285939429603
H        10.78893643569651    6.31205774026437    6.48213898331213
C         7.41254496324317    9.41728587822907    3.69096950733554
C         7.44808813356208   10.03109652943586    4.94063751397868
H         6.76142674680846    9.69235819690752    5.70709662061938
C         8.26634543326070   11.13213503030537    5.15186338065804
H         8.26916035782013   11.62521914173558    6.11355265563394
C         9.03715617143613   11.62056352633656    4.10749321344153
H         9.66967205868670   12.48199430669503    4.26263956423943
C         9.00334625373807   11.00539550984949    2.86553176369557
H         9.60963966419830   11.38795127167990    2.05715694500418
C         8.19951480637933    9.89876730017508    2.65436038178409
H         8.18993525516547    9.41387785486748    1.68913178910412
C         2.87025266798583   10.28410858891005   -0.20340522557261
C         2.01590534049261   10.77598603893458    0.77481386151812
H         1.92273410482656   10.25713522586571    1.71800856075147
C         1.28439081667475   11.92262717337216    0.52857511759713
H         0.61843502897895   12.31036110045699    1.28572655352088
C         1.40179833416803   12.57455044464037   -0.68980562274480
H         0.82659767871018   13.46943351166681   -0.87732643248179
C         2.24982394241642   12.08028104164346   -1.66709920822686
H         2.33658947583800   12.58802686427804   -2.61649367441990
C         2.98390081037024   10.93292657105446   -1.42379235452388
H         3.65059491469957   10.52090703090935   -2.16775512148976
C         2.65790149081302    7.53323416861545    0.63029950837937
C         2.03254106176806    6.80660131323899   -0.37526776110932
H         2.31961962557362    6.99218684636014   -1.40087584746957
C         1.07696213846162    5.85858674480003   -0.05985615689248
H         0.59206537112970    5.29558646229713   -0.84380949048944
C         0.74529904425741    5.63309168954295    1.26649764059587
H         0.00055131663891    4.89224797923585    1.51850169785883
C         1.37153458758966    6.35279660232798    2.27095709451551
H         1.11792748109014    6.17029937906524    3.30511067147861
C         2.32436125252039    7.30735603714320    1.95929161978159
H         2.81313509934292    7.85130452317072    2.75388852207966

