23
CSD_code = OCOPIG | q = 0 | S = 0 | Stoichiometry = C10H10I2Ti | MND = 12
Ti        5.24256561286055    0.11821924685547    2.92535752371011
I         6.11358520336872    2.06221444994491    1.19330919934826
C         3.24120156696326    0.29240046093520    1.63316075743005
C         4.09675685638843   -0.65045818192450    1.01150084917946
C         4.22410071846353   -1.75384811978561    1.87405707807756
C         3.47459125378057   -1.48486616283453    3.04320814358956
C         2.84002362976307   -0.23854960019774    2.87313051717650
H         2.10102796097187    0.19082175342567    3.53693979418900
H         4.47832728132996   -0.58547719620932   -0.00092883949653
H         2.87494074381267    1.21119159219556    1.18888768524224
H         3.27688796773044   -2.17999431960950    3.84997070268733
H         4.69815505314750   -2.69504440481225    1.62867571639785
I         4.37231629358672    2.06243574357990    4.65650307145940
C         7.24394177028389    0.29239598026784    4.21749748738613
C         6.38839699491920   -0.65056003098977    4.83903303189502
C         6.26119826498714   -1.75390369500567    3.97639864784623
C         7.01072891428415   -1.48477525591705    2.80730186656206
C         7.64521612313747   -0.23842631954484    2.97750937953986
H         8.38429169511990    0.19099082314924    2.31381216172275
H         6.00667710948114   -0.58562877187963    5.85140567849074
H         7.61014241639073    1.21116530617698    4.66186117220771
H         7.20855366337198   -2.17986674782376    2.00053416890005
H         5.78717290585731   -2.69513654999667    4.22167420645864

