111
CSD_code = OCOTOQ | q = 0 | S = 0 | Stoichiometry = C60H40F6IrN2OP | MND = 6
Ir        0.40233667889597    3.71172110830362    9.52256000828791
P        -0.14721670474292    1.92113879803117   11.03347692558285
F        -4.06577085023525    3.24446864675524   10.64884740676227
F        -4.55054749437589    1.23431587659150   10.09741205608813
F        -4.54244629709460    2.78462186131950    8.60473904622574
F        -1.14572901002530    0.52930541535557    8.06573734938783
F        -3.27189670141011    0.32477737197320    8.01903428066482
F        -2.32687428406755    1.97566913600810    7.01351747942219
O        -1.79983869880294    3.28579340218711    9.26290209961336
N         0.86786096218192    2.62587883410239    7.87932085705889
N         0.00074306246152    4.99301206723454   10.99527499863552
C        -1.81971260905655    1.24351954850967   10.60465421341196
H        -1.74264654979824    0.19321329839894   10.31626761586342
H        -2.48527628391529    1.31774622878834   11.46770703341286
C        -2.37420414345063    2.10398250523418    9.42374359933943
C        -3.89179300500464    2.33441102392043    9.67764637176105
C        -2.29120327184369    1.24089896350320    8.12354899210156
C        -0.38384582981502    2.55552485952316   12.73049256909770
C        -1.53971860805819    3.24388399389527   13.08874966531027
H        -2.36222952905940    3.33100864696409   12.39502013234308
C        -1.63732208086864    3.84505047508215   14.33053262505456
H        -2.54065897441343    4.37443136247937   14.59602382775872
C        -0.58305904306087    3.77481247187127   15.22510334153103
H        -0.66248999233861    4.24383024217240   16.19483254220179
C         0.57588351074550    3.10437332497268   14.86963437510731
H         1.40440550365171    3.04733806209418   15.56050622632331
C         0.68102952667353    2.50892769165907   13.62678031625367
H         1.59502208524854    2.00260651181593   13.35067992262899
C         0.81699188225533    0.41889818443074   11.42970663843488
C         0.25238176295853   -0.74130093699141   11.94641610840045
H        -0.81253588125169   -0.80095973570781   12.11893718755666
C         1.05595809666500   -1.82407256953435   12.25691627717927
H         0.61031011895772   -2.72452797272412   12.65367206689293
C         2.42663034673190   -1.75491361108095   12.06848735561423
H         3.04818926753708   -2.60354708954515   12.31249994274371
C         2.99823758294762   -0.59390753429569   11.57467068404664
H         4.06767083471855   -0.52857381875397   11.43758178970871
C         2.19694847394383    0.48743646888451   11.25587695194407
H         2.63899181068612    1.39990796149103   10.87604078780373
C         1.40979832605306    1.40950094977437    7.84332761046667
H         1.59250984182079    0.93082533359634    8.79590128967113
C         1.72723073054298    0.75441151265057    6.67436161289097
H         2.15240045822963   -0.23585903539895    6.71092873647199
C         1.50827859088869    1.39476726186511    5.45459849815730
C         0.95897781464290    2.66381725454999    5.49363145719775
H         0.83163851043943    3.21774047613251    4.57822279781639
C         0.60957485077279    3.25884113513171    6.70796379825734
C         1.85616866475735    0.73068032548760    4.16267537465634
H         1.87880875774029    1.44927435163973    3.34766359048829
H         1.11062755373725   -0.02970774188032    3.92985505526968
H         2.82310781338818    0.23654186212044    4.23220902004924
C         0.14179369265390    4.62573123123759    6.85263052628894
C         0.38015360383303    5.17492886462793    8.13342574503049
C         0.28959295435064    6.54355366197731    8.29733344248596
H         0.51262955634879    6.99939667959863    9.25302894283187
C        -0.05976064219231    7.38706547960112    7.23701723644644
C        -0.48380367183985    6.81511016579684    6.01270678603438
C        -0.43107948118165    5.41001472790187    5.83016143236750
C        -0.06200949178258    8.80455482179933    7.37174437846366
H         0.27633079112179    9.22447082044960    8.30892393369893
C        -0.47506207021705    9.60724123239034    6.36277863383772
H        -0.46976234253538   10.68275904574135    6.47357432136259
C        -0.94521886404228    9.06151995898756    5.13288772747617
C        -0.95855068213073    7.65307778930249    4.97516377905606
C        -1.39273869135202    9.86707164250701    4.08448188794845
H        -1.37108881439835   10.94158898283933    4.19973523432745
C        -1.86166640246334    9.30520216150161    2.91091557442565
H        -2.20640470499139    9.94487388325343    2.11111032821086
C        -1.90153425937401    7.93179623979043    2.75661632741845
H        -2.28331959407946    7.49905808995920    1.84278115742305
C        -1.45406357255623    7.08810454470028    3.77481842121948
C        -1.52480453601346    5.66923116904804    3.67984425708871
H        -1.99874667421920    5.24064574740508    2.80773365506484
C        -1.03912594381853    4.86903697444030    4.65977640223688
H        -1.17599477243233    3.80094148742904    4.59598558603996
C        -1.18388197687824    5.57810037394147   11.13323239387324
H        -1.95618535122943    5.23550753451009   10.45830418961126
C        -1.42109402997503    6.56046041781981   12.07024993703898
H        -2.40239487324302    6.99889250270200   12.15685707971525
C        -0.36848253110758    7.00500083089080   12.86944176138572
C         0.86691173181390    6.39918504099286   12.70540480474955
H         1.71597509167339    6.76935252306741   13.25601367316059
C         1.03161809352681    5.35704162556692   11.79291814245171
C        -0.57182247574829    8.09894425291741   13.86700092048650
H         0.37846373858543    8.51679898353810   14.18920643198439
H        -1.08832106592361    7.70509956879560   14.74255278184448
H        -1.18716086751537    8.89198376349218   13.44763726846524
C         2.27711189591932    4.67594736628099   11.47410190871980
C         2.27104081891526    4.05540091236157   10.19736856389877
C         3.47265921782599    3.59553221415793    9.68313387921759
H         3.50555612046260    3.15528716659330    8.69528631804694
C         4.66956386590493    3.69503279708296   10.39825084093852
C         4.63782661507219    4.15707214952405   11.73760025373940
C         3.41931888329889    4.61726976422865   12.29951675271439
C         5.91491160333797    3.28780706650276    9.83861330902334
H         5.92072463379996    2.94829907443021    8.81242946395256
C         7.05779134438143    3.32426385255429   10.56246263220187
H         7.99887945790106    3.01858951820755   10.12718341531836
C         7.05473692210511    3.75289580066956   11.92211362920095
C         5.82716265658865    4.15499054658618   12.50588406658545
C         8.21803027431381    3.78828505089845   12.69221863293275
H         9.15581132566125    3.49403160293205   12.24279953507135
C         8.18050301879073    4.19354121757055   14.01429946817891
H         9.09170826788357    4.21458612104769   14.59445851781035
C         6.98484027893779    4.56455734950776   14.60041694533598
H         6.95923711354565    4.86813081552255   15.63735541521807
C         5.79861660441749    4.55315828426801   13.86447903569461
C         4.53897953891404    4.88340400949786   14.43870294322664
H         4.50305032419631    5.09809975187068   15.49791712333827
C         3.40709196260013    4.91251363671483   13.69463310898545
H         2.46005880642536    5.10202634967310   14.17428863007520

