43
CSD_code = OCOXUZ | q = 0 | S = 0 | Stoichiometry = C16H16MoN2O6S2 | MND = 6
Mo       16.53035077245811    5.85628328224760   11.59492824842081
S        14.28933221093792    4.75813687768797   11.24393978933376
S        18.81531166631661    5.32027108172116   12.51476216235113
O        16.76748741160241    6.25837931633605   10.02468751905747
O        16.24679591845117    7.13123455630524   12.58368748596591
N        16.61430991371259    3.75550485822388   10.89350142885212
N        16.53527955940496    4.63830781946337   13.44684090858550
O        12.58031412756759    2.73270992236120   10.19290485468160
O        13.28003562805092    1.32791955040463    8.58263838875254
O        20.60097234401717    4.51712543835358   14.57957922528353
O        19.94466449214154    4.28229552719400   16.71069649462547
C        17.54398511924198    2.93077057792763   10.42398658628555
H        18.56947247544623    3.17062732161111   10.68407270885533
C        17.23008157970871    1.82784115371495    9.64899082448247
H        18.01049761628557    1.18160803953933    9.28288962322026
C        15.89535108172020    1.57558484182494    9.35703279461464
H        15.60829205881218    0.72460817468445    8.75883782389073
C        14.91252001876619    2.42741224151900    9.83944773593013
C        15.31751473001504    3.53969745930523   10.60513778560101
C        13.46697691837243    2.19916843613090    9.57897410655784
C        11.92329113941731    1.02199080778154    8.24723534151770
H        11.96302778997877    0.66764992548574    7.21543707884098
H        11.32975514844013    1.93960333380474    8.30689570592904
C        11.34651822059130   -0.03837006877887    9.17362324629026
H        10.34043024571423   -0.29121981513259    8.85243683304907
H        11.30545683258806    0.34089663038674   10.19161772540936
H        11.96171642834850   -0.93492994676206    9.15246655839582
C        15.63756739660869    4.23833405252765   14.34060513854060
H        14.60708047238627    4.21305502622957   14.00250303870316
C        15.98889406521515    3.87283436770607   15.62852226554101
H        15.23349608878643    3.55666189246132   16.32859190644432
C        17.32828834745594    3.92285080626935   15.99398086931566
H        17.64473747904638    3.64395205547645   16.98721428124328
C        18.27847868675546    4.33761961000491   15.07208467604791
C        17.83550224500347    4.71350451782913   13.78723060808759
C        19.72667450716791    4.39569807878516   15.39812535894453
C        21.31402870614765    4.33529726165834   17.12366367968559
H        21.73956696016166    5.29257496115393   16.80364365039989
H        21.86487724476854    3.53393787664443   16.61862368231804
C        21.36414283131534    4.18108427697417   18.63165090870766
H        22.39564917277626    4.22959615211327   18.96739185782952
H        20.93990871977769    3.22507852583543   18.92716434067550
H        20.79776562853442    4.97641319500620   19.10885475273976

