58
CSD_code = OCOYUB | q = 0 | S = 0 | Stoichiometry = C24H29AuClN2P | MND = 2
Au        8.11334477031502    4.17058349653446    6.01854476315181
Cl        8.24658077916840    6.29474656970504    5.24873264419440
P         7.97945904386141    2.05388746175943    6.74586878129606
N         3.70736607080120    1.01032122282707    2.27375048682247
N         3.79667867591970   -2.68805058067503    6.10859358444820
C         6.62342356854946    1.10794168011314    6.00763377171732
C         6.39508790303447    1.31822773657888    4.65125043229230
H         7.01038290604394    2.03397925007168    4.11866616253434
C         5.38828746150366    0.62630777096693    3.99773797019704
C         4.60443333660522   -0.26336332442483    4.72225879336104
H         3.81213838419130   -0.79730473873782    4.22228579526252
C         4.81520853435074   -0.47131774999954    6.07887673617744
C         5.83475631929137    0.21480931691304    6.72306360759429
H         6.01283590399665    0.06167139909548    7.77938100332699
C         5.12674520760875    0.82887435536422    2.53086925277055
H         5.72676319018525    1.67933201185001    2.15896318702889
H         5.44967428568045   -0.06950162302469    1.99345296808248
C         3.41052651096598    0.93001994323729    0.85953605570961
H         3.91641414194174    1.71178119720010    0.27133319872311
H         2.33578105535307    1.03274884844386    0.71845897047258
H         3.71802933795906   -0.04427802418478    0.48153515839950
C         3.22892708823029    2.25582740673594    2.83863873552201
H         3.43048832375796    2.26606884098679    3.90863052153216
H         2.15320718981957    2.32499215216991    2.68561463882531
H         3.70687106816873    3.13741199284599    2.38372140314986
C         3.93244808369649   -1.43240498633844    6.82800821084924
H         4.32432127652350   -1.58259548857959    7.85152688556092
H         2.93452047114035   -0.98993188715621    6.91418448676733
C         5.05137631631443   -3.40803890897132    6.06579419702912
H         5.80951150712697   -2.77872009066262    5.60187331073001
H         4.92680992325102   -4.30503158899284    5.46148721709412
H         5.40385787826710   -3.70507472803256    7.06733595043407
C         2.73852028821696   -3.50708154947662    6.65866433888611
H         2.92190118382472   -3.79696193650438    7.70579093082895
H         2.64557753365844   -4.41231827604541    6.06073975943002
H         1.79763130372830   -2.96092867103530    6.60832895381743
C         7.71632266036832    1.87498943690128    8.52992048703144
C         8.50826866962307    1.08180978992145    9.35134272775296
H         9.32551677326437    0.51219455721659    8.93111275920933
C         8.24292977934924    1.02723591313938   10.70902428624307
H         8.85685200199599    0.41084248411163   11.34911322382009
C         7.19788539006741    1.75965007518304   11.24692440436213
H         6.99773164087569    1.71347276836198   12.30694556923910
C         6.41240110236472    2.55865435525584   10.42929227304241
H         5.60281605209210    3.13530993850976   10.85096245562084
C         6.67389630672729    2.62260777256098    9.07483256436713
H         6.07875773066205    3.25018621070004    8.42289758420763
C         9.44684417918862    1.04400158434375    6.40777016004768
C         9.37277215594831   -0.32140152224337    6.15135167377364
H         8.41121683708276   -0.81593288269648    6.13975857723019
C        10.53267818332938   -1.03469611345702    5.90858193389787
H        10.47781811148177   -2.09435508109968    5.70717628542140
C        11.76154790034088   -0.39387119990025    5.92082771509978
H        12.66309845852287   -0.95599243338518    5.72826926514483
C        11.83628055515045    0.96702883657185    6.17243307675132
H        12.79344078073938    1.46634066583245    6.17611441212172
C        10.68096136529686    1.68776077423311    6.41105336825946
H        10.72047654255273    2.75393556939463    6.59626233331870

