68
CSD_code = OCOYEL | q = 0 | S = 0 | Stoichiometry = C28H35BrN3V | MND = 8
Br       -3.85833304658171    5.39310379944530    1.33132585806675
V        -2.81625250002104    5.76415010481053    3.53029076600963
N        -0.48557227491046    4.68832172030158    2.07577033452376
N        -1.24491324243511    3.13756827956195    3.35792511895588
N        -3.82466007609629    4.88154446935950    4.62961589557317
C        -1.33588006874952    7.11588596358615    4.67227145873919
C        -1.23403672130826    7.27141871974115    3.25251505035937
C        -2.41626291444858    7.88384953192338    2.81242329165422
H        -2.60329594167423    8.23172677777748    1.80276142357164
C        -2.64215341842736    7.57617506306417    5.05692642559425
C        -3.31928891614339    7.97817063725962    3.87391295683518
H        -4.29686794498454    8.44159600708369    3.83161485622150
C        -0.42633918214664    6.70615564454935    5.65470610267687
H         0.56748078891578    6.36892871012751    5.38271450690805
C        -0.79415566090462    6.79105981806057    6.97789284122058
H        -0.09217039664740    6.50853619050363    7.74968216162852
C        -2.05758580073811    7.26859109534030    7.35471019994483
H        -2.29712250939841    7.34101619868739    8.40643857088778
C        -2.98479526099223    7.64933561430762    6.41305270771697
H        -3.95267314481203    8.03495053767706    6.71147291322428
C        -0.01990368110548    7.06603028529237    2.39851991954667
H         0.84641166107081    6.80724042271128    3.01553320868735
H         0.21686135814202    7.98104867595833    1.84508088317241
C        -0.27873798012391    5.93838650901238    1.38829574491524
H        -1.16482619501364    6.17636649886363    0.78554560284637
H         0.57583560994738    5.81774242578505    0.71717837200438
C        -1.44967977294910    4.43224074872567    2.99808588896682
C        -0.18261891929682    2.60663692119227    2.66231441812012
H         0.12718444323395    1.58982758799311    2.78916697505970
C         0.29544012279609    3.58179519511277    1.86522004118568
H         1.10987741251756    3.57701247106471    1.16987806780219
C        -1.43870733081248    2.09438992012376    5.54640515513294
C        -1.97269568868883    2.32649025223256    4.27322797227390
C        -3.13513614325287    1.68170505002053    3.83460514878558
C        -3.77906187099544    0.82238532041609    4.71578528346922
H        -4.67723569355272    0.31377158247440    4.40430007230143
C        -3.27190597804548    0.59155326294289    5.98060871394925
H        -3.78038394199763   -0.08744697797784    6.64951310095409
C        -2.10700860531073    1.21347095117500    6.38748860242351
H        -1.71373510848859    1.00707055783540    7.37015607630864
C        -3.61898602374279    1.84872624730806    2.41477638955717
H        -3.29922650345653    2.82908961268838    2.05429247155958
C        -2.97478915933059    0.77342639197709    1.53177017581843
H        -1.89166254970658    0.86452131824635    1.52989508980588
H        -3.32863961995809    0.88217258408780    0.51005629598097
H        -3.23799884075190   -0.22052814190197    1.88952197503840
C        -5.13937369284723    1.78020218468137    2.27859189032537
H        -5.50260416368423    0.75809534936088    2.36274054624739
H        -5.42535996785320    2.16538579664419    1.30338856743501
H        -5.62057842624196    2.39077524600663    3.03709906193553
C        -0.14744041697882    2.74507239960858    5.99313773540329
H         0.04116902789242    3.61509196286096    5.35425634171453
C         1.01470525743623    1.75697208723123    5.83915010170686
H         0.83022027767678    0.86503887317025    6.43419421848227
H         1.94100480696756    2.21388521619850    6.18051597370147
H         1.14435344372900    1.45605969413902    4.80356157208805
C        -5.25019343856153    4.85073164739791    4.46011617197602
H        -5.66966001062347    3.90551809586981    4.83502303663608
H        -5.52679298910983    4.96377603843882    3.41226617859006
H        -5.71631021340460    5.66546309049843    5.03975818204109
C        -0.19775188920597    3.22955762728353    7.44407710138919
H        -1.08425530013280    3.82989746959936    7.62940040045597
H         0.67879331251543    3.83893817731157    7.65261458990759
H        -0.19384851666032    2.39377485171511    8.13917306047702
C        -3.47617429948539    4.54249039844241    5.97077214281177
H        -3.99255788002271    5.20585139251663    6.68211681729982
H        -2.40201057379463    4.65507053095030    6.10414369568939
H        -3.76372711623537    3.51074131354583    6.21365752770746

