43
CSD_code = OCOZAJ | q = 0 | S = 0 | Stoichiometry = C14H24N4Zn | MND = 4
Zn        2.73481613787655    3.15767117677383    2.44399248344230
N         2.61348963897324    3.41142656442667    0.57506691207188
C         3.39570760100486    4.09247588301541   -0.31076189457454
H         4.33934859907018    4.51761882902568   -0.01095115491225
C         2.80788146366785    4.12613620704085   -1.54662069793861
H         3.20242073930015    4.58933410159461   -2.43148847275405
C         1.59146272705001    3.43141115613209   -1.42597396834884
H         0.86959817693400    3.25980882223297   -2.20173553307124
C         1.50956441083732    3.01528237103236   -0.12413992084310
H         0.73179112412276    2.45135880901747    0.36192451643446
N         1.93125446935631    1.79223368811067    3.47252636487122
C         1.64195255963909    0.57213350540822    2.93178239444005
H         1.78094573953638    0.39754284248863    1.87855511447762
C         1.18527228223011   -0.28403693016126    3.89761060706321
H         0.88123491589898   -1.30427651530566    3.75971003900088
C         1.19141234246164    0.43686738899758    5.10482557045166
H         0.89200651320420    0.07934712800995    6.07215188640527
C         1.65197751602698    1.69029324405786    4.80369274655213
H         1.79555068406793    2.52499892813340    5.46947489581893
N         2.51321680113364    5.20549702102529    3.28108001774941
N         4.79369297451488    3.33267805613018    3.24825838176760
C         5.79689322110598    2.87629071352331    2.28786084305173
H         6.81409752594278    3.05638477427168    2.65828464385881
H         5.66874831560970    3.38801952873319    1.33718441693428
H         5.66905160964156    1.80918273649971    2.11665631137521
C         4.96830290656379    2.57380898039833    4.48518728211766
H         5.97784698176057    2.71191294148614    4.89267218118178
H         4.80645316045524    1.51694712096673    4.28570663890436
H         4.24104435594712    2.88091890762630    5.23039399379679
C         3.69358656082007    5.37290606936807    4.13132909829047
H         3.50006325137584    4.87523642487871    5.08329214790880
H         3.87776457969653    6.43750125209948    4.33896213594930
C         4.94494320542197    4.76772360240689    3.49546308995388
H         5.13087258684772    5.25754864805557    2.53789982124164
H         5.80824081674933    4.96284959740354    4.14934744646804
C         2.49441927796010    6.21491510573693    2.22382506679001
H         2.42674679463085    7.22557887481662    2.64602580444851
H         1.63877693463246    6.04261846262631    1.57481301764597
H         3.38843155700556    6.14576463837389    1.61166350233064
C         1.29305716886493    5.35005129305658    4.07308353494212
H         1.23893955865206    6.33902238856569    4.54567939524850
H         1.25178881715837    4.58467254529999    4.84427530032589
H         0.42823339625229    5.22254311661963    3.42491403913299

