79
CSD_code = OCPBRH | q = 1 | S = 0 | Stoichiometry = C36H40P2Rh(1+) | MND = 6
Rh        2.19657617964566    5.48166170312984   -0.00899890574957
P         1.85076585973454    7.66747966418896   -0.50194239585876
P         2.57009564792647    5.32632934983011   -2.24092144374081
C         1.65947702822337    7.89187432785230   -2.34613061734701
C         2.74964024365914    7.02786108978020   -2.99017369115971
C         1.70173069565375    9.35100604918358   -2.78178548164143
C         2.70224658207328    7.02038197086988   -4.51272704986849
C         1.07284405973492    5.39341912332480    1.88387577400485
C         0.65907167863402    3.98200493441274    2.23071613048982
C         0.86540888446397    2.98755561088588    1.07021536318868
C         2.04975477938229    3.30267256569883    0.19239062775353
C         3.29776117404750    3.68405745682851    0.63365296631747
C         3.69546904633021    3.75720046614393    2.08969917826721
C         3.49538281030774    5.15807974057946    2.70265186276640
C         2.32239777729537    5.91626717196697    2.13561930886368
C         0.51446515928690    8.63927497644360    0.24670438001548
C        -0.76830041404145    8.59188954907725   -0.29560224286158
C        -1.80915266677147    9.25966866845834    0.32308199987361
C        -1.58555224189622    9.96224834424304    1.49643875058495
C        -0.31852741155639    9.98849854858179    2.05676927454185
C         0.72666994794496    9.32446213417890    1.44142264075598
C         3.38534009117904    8.57998976620767   -0.15953688309997
C         3.46195787390043    9.96844265638716   -0.09806111523723
C         4.68373106549449   10.58031146142076    0.12092117137091
C         5.83112844001253    9.81866501364734    0.27642419855335
C         5.76040553023696    8.43550839856174    0.21889238805760
C         4.54200941080186    7.81909277329596    0.00430213796590
C         1.05449292424987    4.71270548003814   -3.03530709002192
C         1.00353207066191    4.23852948648782   -4.34291790463604
C        -0.20535854356103    3.83172244261892   -4.87970355578576
C        -1.36514568564016    3.89661910542770   -4.12374561703116
C        -1.32007401607553    4.36641667304135   -2.82039748443260
C        -0.11465635933959    4.77054552040584   -2.27806411514113
C         3.92994798737143    4.34662612579245   -2.93542955576469
C         5.20490213760716    4.89846839052228   -3.04300018742242
C         6.26163797027806    4.12477619038644   -3.48677505371272
C         6.06207202060319    2.79145386625104   -3.80698529597873
C         4.80276780073826    2.22889071031416   -3.67392528259627
C         3.74186193168813    2.99820404458888   -3.23291242198762
H         0.68195958461196    7.46443570887591   -2.61118264388761
H         3.72672637218558    7.41005140446894   -2.66230934474886
H         2.70187263400435    9.76308401584870   -2.66302273158077
H         1.41275143195708    9.44311597573608   -3.82616187143425
H         1.00632032728756    9.94420037125598   -2.18964023715140
H         2.97957545611678    7.99592317557803   -4.90520565310581
H         3.40434629536767    6.28894350546123   -4.91028950973203
H         1.70370313048913    6.77602931694210   -4.86960245068630
H         0.24785774256398    6.09854618292645    1.76334258392788
H         1.21178819376310    3.65905003322656    3.11300019944433
H        -0.39907175408715    3.98368666436433    2.49685853681671
H         0.98149533525058    1.97492120063337    1.46929848976518
H        -0.02877951602901    2.98075111517343    0.44156983504419
H         1.97224818016297    2.87885378520798   -0.80951757221471
H         4.12984084465700    3.58892007996363   -0.06687322612872
H         3.12909634648326    3.01188671510403    2.64810245950581
H         4.75016566752667    3.49204878783023    2.17748740025035
H         3.36917679860743    5.07135680105908    3.78648014227064
H         4.39605450812053    5.75418395689952    2.53417020831691
H         2.40654326673248    6.99738963264596    2.25322122269603
H        -0.95218342553666    8.03457576974551   -1.20347559285222
H        -2.79796305031006    9.22927049851484   -0.10872655123422
H        -2.39894462951085   10.48328009837565    1.97695935597760
H        -0.14397287180786   10.52653802495553    2.97600623895142
H         1.71402495584775    9.34742198637910    1.88206294436191
H         2.57028759465705   10.56765723812105   -0.21140232019256
H         4.74047926418240   11.65705785865679    0.17001124326990
H         6.77992501915962   10.30323942102949    0.44730137320463
H         6.65360914151400    7.84197486056840    0.34455439300674
H         4.46997322314417    6.73020469188944   -0.03607300001677
H         1.90504556822348    4.17883521482624   -4.93512683664290
H        -0.24218693473261    3.46233477763616   -5.89323429244044
H        -2.30362689051520    3.57647668821802   -4.54920092041964
H        -2.22303516474617    4.41294047546020   -2.23018048562210
H        -0.06232269758559    5.13562401969926   -1.25020048967549
H         2.76065765816128    2.55520262195873   -3.13012341139971
H         4.64669196730522    1.18798638081868   -3.91283368694519
H         6.88795163895050    2.19005250043650   -4.15366847900364
H         7.24421584298692    4.56187741451103   -3.57993155286822
H         5.37132547460702    5.93420947756650   -2.78227852915695

