39
CSD_code = OCTFEB | q = 0 | S = 0 | Stoichiometry = C19H16FeO3 | MND = 7
C         1.32392872265249   -0.89677740572052    2.24722388059637
C        -0.02914045934255   -0.23218214630116    2.10120576801215
C        -0.14859550609133    1.12128603003465    1.49398687028077
C        -1.46404012522277    1.85923762685913    1.63603768828012
C        -2.66994900463964    1.16173874579263    2.09578664692625
C        -3.03957057775930    0.85185645189920    3.33941393799796
C        -2.37821009032043    1.16270799125590    4.58307320704171
C        -1.16810305806034    1.66831443479151    4.82414505765191
C        -0.02988227153568    2.04320492347115    3.92751082040722
C         1.08833717839483    0.95911458745567    4.11369075477939
C         2.41941387885374    1.56573639252246    3.69703984557794
C         2.74463961298847    1.97791641904547    2.35894029815448
C         2.79942422387158    1.02880953756254    1.33408364804816
C         2.55586568656179   -0.35111979828371    1.61891527926384
C         0.63543617106135   -0.31921751516613    3.45093638369920
C        -0.27136146153403    2.27905925825030    2.45204327125088
C         5.45413139216179   -0.26116608969295    2.08830997642366
C         3.75295080580689   -0.90369212415389    4.16242710272817
C         5.28005387317521    1.36099316062257    3.88532955189913
H         1.30357505620652   -1.98064774923399    2.19819499280152
H        -0.86903956430584   -0.89281544320426    1.91607050319252
H         0.40056355237950    1.26960912585571    0.57024087778643
H        -1.68371399997949    2.52509564572011    0.80480030706462
H        -3.32760769557199    0.87319287450990    1.28314158679631
H        -3.97897417275812    0.32598237603392    3.46006495065048
H        -2.98460407674319    0.94517216587421    5.45539935228635
H        -0.90690666397074    1.81002471077092    5.86795711103370
H         0.36832073897961    2.98204120681123    4.33382868891144
H         1.16876686448878    0.75947999677467    5.18770407748982
H         2.65715999458051    2.34743767785541    4.42458819985523
H         3.04185958901794    3.00280028585833    2.15394484162880
H         3.16417193796538    1.32178899911664    0.35327459302305
H         2.87166589777968   -1.01096920811110    0.80871743594375
H         0.22387346268054   -1.03993618928422    4.14698542526697
H         0.16733491642953    3.21251165370886    2.11467581891370
Fe        4.09677762974651    0.40658710335181    2.99377815647652
O         6.36800597627977   -0.72156500309001    1.56956731904118
O         3.54933549138547   -1.73040801111634    4.92494269611763
O         6.08030607438745    1.91399730155321    4.49322307670104

