76
CSD_code = OCUBEU | q = 0 | S = 0 | Stoichiometry = C39H34NPPt | MND = 4
Pt        3.04060628342689   14.50016746378901    9.35336452262237
P         2.60699339759578   15.54043101638114   11.43428480860497
N         1.12434120879095   13.62357426526859    8.93359712201775
C         0.67061864902390    9.72031855698871    7.69441675443500
H         0.80963524402628   10.07672757687038    8.70574861157389
C        -0.38405098343198    8.87825505823305    7.39455489309403
H        -1.07870274108870    8.58981616447018    8.17062316676425
C        -0.54975118748953    8.40165655830502    6.10477996320424
H        -1.37535045137046    7.74563272904135    5.87086388308310
C         0.35014965271591    8.76684956115155    5.11724129008259
H         0.22522446378097    8.39735510136297    4.10955748588556
C         1.40854399421070    9.60435587422910    5.41612276479945
H         2.10309381620087    9.89763094130087    4.64201651433198
C         1.57899616498611   10.09788658674745    6.70747967845560
C         2.70996323640751   10.98205468791197    7.02381746406805
C         2.52533267789702   12.17197173981296    7.74964438193753
C         3.61185526182151   13.00895960936527    8.11356326321647
C         4.88423467125100   12.58153956731865    7.74036008647245
H         5.75429757878753   13.16001148031193    8.01520214880289
C         5.06996832029792   11.42545346540559    6.99869525333600
H         6.06885583355384   11.13250566567998    6.70560766077302
C         3.99490810533001   10.63138793370238    6.63636148164490
C         1.21990567941247   12.68657501163849    8.06633910455134
C        -0.09879454319758   14.36234004044971    9.06471611528828
H        -0.51458417502190   14.21315638490543   10.06833152349603
H        -0.84918354815575   14.02395223498066    8.32941029096789
C         0.18018272313925   15.83572730163345    8.86923465528258
C         1.17953433209198   16.25793779785297    7.99254817419009
C         1.43513559068469   17.61155329420724    7.83284672253771
H         2.21433761833767   17.93005876401459    7.15666019629564
C         0.69492761087695   18.54994989604697    8.53211625792034
C        -0.31348004365344   18.13398824112244    9.38584540056952
H        -0.90157147964759   18.86064376926743    9.92719930400605
C        -0.56404237240998   16.78413329532538    9.55765136658570
H        -1.34674447729557   16.46330533993679   10.23074179307690
C         0.98702791386846   15.82333535230704   12.23915735400368
C         0.20521296572293   14.68956554162238   12.45589106926746
H         0.60260764127181   13.71715516101745   12.19008340421703
C        -1.05115878948577   14.79792111780368   13.01965266264186
H        -1.64695306491534   13.91180665475795   13.18746097220208
C        -1.54629876398430   16.04441338765365   13.37006584217611
H        -2.52909057064846   16.13261274992255   13.80942031823574
C        -0.77478964075764   17.17438461097734   13.15871267697776
H        -1.15509683204453   18.14673878638040   13.43714805901871
C         0.48441330045953   17.06845924989986   12.59346195541461
H         1.07841787910210   17.95726134518059   12.43927901566202
C         3.51017640775151   17.06423878769272   11.87296331098569
C         3.17214671759678   18.21527988745387   11.16285188074964
H         2.39410260678695   18.16212578549611   10.41221235132744
C         3.83261818090016   19.40530887820325   11.39948833517168
H         3.55801747553897   20.29360455900201   10.84890080064512
C         4.85486536671172   19.45455470396897   12.33410125293015
C         5.21833068593012   18.30692260125353   13.01732916896441
H         6.02787322178767   18.33830604945509   13.73228538633936
C         4.55443922333428   17.11394097285485   12.78737303776041
C         3.25518006955066   14.32338036156094   12.63287255528095
C         3.89390663062697   13.18583614287251   12.15406977219778
C         4.38094299416319   12.23627154845078   13.03542000851574
C         4.23143361303070   12.41771816318225   14.40003949369388
H         4.61177676685902   11.67864370145164   15.09003928968678
C         3.58791968002271   13.54707021951835   14.88334636537228
H         3.46757950065950   13.68627702024804   15.94817679441496
C         3.09730365085430   14.49579039371196   14.00618418661253
H         2.58819069354788   15.37335909078493   14.38265770356592
C         4.84068177838673   15.50345435991085    9.26483436614041
H         4.15417134032776    9.71746460935079    6.08190318745557
H         0.34349413886557   12.33727568269114    7.51364895206601
H         1.72012789594793   15.54346158272238    7.37757525789123
H         0.89792433953653   19.60374240864793    8.40668407973163
H         5.37545169275308   20.38277877576984   12.51868003883444
H         4.85721184568690   16.22191934716480   13.31621151913776
H         4.00065968995489   13.05697385925587   11.07553085921223
H         4.87562584685417   11.35381462773688   12.65691032692621
H         4.63340517111136   16.58019105853908    9.33684360758492
H         5.51167092523399   15.25223038520807   10.09283513464263
H         5.39019369926180   15.34234750363867    8.33445354219154

