59
CSD_code = OCUDOF | q = 0 | S = 0 | Stoichiometry = C28H24N2NiO2S2 | MND = 4
Ni        2.58923741765771    1.76619351894079    2.25405015490025
S         3.86862174289347    3.19745836990258    1.20492368532597
S         0.79899105890150    2.18143283909041    1.08221440451727
O        -1.80703049564450    1.68778571371002    6.24969682883992
O         7.83667761300447   -1.31417600265438    1.89881602492292
N         3.94579381908286    1.83011108099299    3.70593359983732
N         1.70204905941915    0.04048359311566    2.73769987971866
C         5.32131752650663    2.75951226526971    2.04369986470812
C        -0.23843145291031    1.16138926043442    2.02609540907261
C         6.57543597856145    3.11572531687502    1.54480725408120
C        -1.62440966014618    1.31883732356655    1.99331577594829
C         7.71772675757551    2.73844086029667    2.21579642027978
C        -2.42909171400884    0.51190056045952    2.76581604668735
C         7.63700071754974    2.00107005792424    3.39553307190857
C        -1.87312048404641   -0.47400168619045    3.57666790848223
C         6.40718094111771    1.67004221987705    3.92243088988107
C        -0.50866274614532   -0.66652195953713    3.59870487022296
C         5.23962719696814    2.05190102951632    3.26163542664457
C         0.32273750181663    0.14354027149182    2.82478480305776
C         3.62699187366545    1.58689774952807    4.92835618594820
C         2.37114871592059   -1.01499288788495    3.04462416380522
C         2.23790666417693    1.60246604271455    5.32640823882414
C         3.77658645889522   -1.10624015647024    2.72829711455986
C         1.33030244890515    2.42838331079195    4.63921389441313
C         4.64839049824517   -1.90911223213344    3.47176737442674
C         0.00100315299144    2.44694496593446    4.98857810969680
C         5.98894479035093   -1.94513714559271    3.17451502333650
C        -0.47668175877079    1.61969617501243    6.01049906500767
C         6.50357741491267   -1.20477412106367    2.10258926882312
C         0.42176205646316    0.81380970341284    6.70957933308725
C         5.63536026214366   -0.44092449553425    1.32508938173292
C         1.76244994799285    0.82354437134015    6.37982011716226
C         4.29305759061728   -0.38532484908290    1.64355964293094
C        -2.36648213541340    0.84626243029845    7.22933095138153
C         8.42199341815342   -0.59026746697260    0.84022555219677
H         6.62870692243254    3.67329114127521    0.62223319040295
H        -2.04504614435974    2.09350098801867    1.37081393848434
H         8.68630463812896    3.00981348447990    1.82034192817474
H        -3.49971076743529    0.65149393901960    2.75263826664891
H         8.53939414146518    1.68633235907379    3.89736352756472
H        -2.51395029816220   -1.08969395718521    4.19031783653085
H         6.35076473513946    1.08394696187819    4.82778816534680
H        -0.08104438455039   -1.42025892444944    4.24427114072405
H         4.37808249629345    1.40167590509139    5.69577664468461
H         1.90138961222865   -1.87720594354905    3.51757792478336
H         1.69446774765309    3.11370649360982    3.86150519933317
H         4.26470046195587   -2.48108441621858    4.30438399187451
H        -0.70305384964097    3.08379368599733    4.47758788841149
H         6.67438014052481   -2.54219092994893    3.75520473109135
H         0.08491279330816    0.17696102255912    7.51247018064439
H         5.99625041344250    0.11810612950055    0.47691186521473
H         2.44924742645514    0.19125220000849    6.92465042512376
H         3.61253335083862    0.18473717305769    0.99465281500475
H        -2.19145183271241   -0.20880621471621    6.99691796369819
H         8.03365900707832   -0.91749850637267   -0.12912783783315
H        -3.43646629960027    1.04595423405478    7.21232710982009
H         9.48782811170561   -0.80605115184790    0.89239175700344
H        -1.97352452815071    1.07072286910898    8.22621957624024
H         8.25976392852757    0.48544543125777    0.95730603511394

