26
CSD_code = OCUGAU | q = 0 | S = 0 | Stoichiometry = C11H13NbO | MND = 12
Nb        3.17779939833797    5.51119446115526   -4.35707260498046
O         1.72879547390251    4.90564980497696   -3.73648976204294
C         2.10046899644158    6.80229979365113   -5.89147630425589
H         1.54822078102664    6.19855534467936   -6.61760130605580
H         2.80391292954716    7.42998567956843   -6.44907067181714
H         1.36968069233610    7.46415136629489   -5.41965505575389
C         4.78602285736848    7.56368105335445   -4.08357646315522
H         5.19363998230394    8.17208131248277   -4.88004350958359
C         3.57951130727281    7.83210941004658   -3.37580254780175
H         2.94750683633630    8.70000569615134   -3.51615380677346
C         3.49163560357292    6.92066481677132   -2.30580915585783
H         2.74915504744356    6.93017391470261   -1.51718401145303
C         4.59808303204433    6.04170752990967   -2.39862346272350
H         4.88239907844832    5.31285817802573   -1.64743087378635
C         5.41634709170911    6.48523199810653   -3.46957701186013
H         6.40335168616362    6.11039708291624   -3.70235579517679
C         3.40197277501953    3.84095089694533   -6.01951939039804
H         2.48722052222045    3.43387006840966   -6.44275974030285
C         4.08347663881868    3.27752382196154   -4.88999882239390
H         3.69487317860652    2.47605526814926   -4.26989444622243
C         5.42482145723470    3.70267034931458   -4.94871664583888
H         6.20564603494419    3.40290458254430   -4.26512853341664
C         5.59065246694310    4.50624805455162   -6.08329132988370
H         6.51330272667890    4.96827043729826   -6.39672678183051
C         4.36921766434021    4.60191319150582   -6.74491702734874
H         4.19348574093426    5.08714588652175   -7.69442493928673

