46
CSD_code = OCUJAX | q = 1 | S = 0 | Stoichiometry = C16H26N3Pt(1+) | MND = 4
Pt        0.29189198578635    7.57419182705389    9.47924225439317
N         0.43066829713474    6.38662191102362    7.99177925343963
N         2.50111158138980    7.17638072230063    9.37090230988087
N         0.05477646738825    8.71808099357314   10.96911761734049
C         1.56573253796264    5.87188632719724    7.68437486239915
C         2.71330051544260    6.34703859720224    8.42206174905571
C        -0.17566992682800    9.37315964951579   11.89053312687098
C        -0.44303039349270   10.18595650164561   13.02630558909982
C        -0.79752767846197    6.09561072696827    7.29791084088625
C        -1.06060739515698    7.20476866451452    6.25882870169803
C        -1.10565195556589    8.58979464047235    6.90366025490462
C        -2.07213912477651    8.61395166761099    8.09103287759900
C        -1.72231514918651    7.50323468129080    9.07584520284123
C        -1.87975980393359    6.14580470492994    8.38040503014302
C         3.55972153081701    7.77876650717524   10.11569785476426
C         3.46064688916816    9.29788885955267    9.90457673552474
C         4.44551600349932   10.04219228908913   10.79880936085543
C         4.21872908837219    9.69171293069754   12.26506392060082
C         4.36167130568929    8.18769563331052   12.47112806355749
C         3.37062078662809    7.42701846207217   11.59809199009581
H         1.68081436887513    5.13954167560481    6.89046325278490
H         3.71153229339026    6.01622868580601    8.13854524435620
H         0.47084805553683   10.67161555793556   13.37000730136418
H        -0.84133559946247    9.56670243887643   13.83089768654431
H        -1.17908195275450   10.94858772755425   12.76978539042067
H        -0.74375651554178    5.12561168062715    6.78603877671640
H        -2.01664214095900    6.99015916250801    5.78019539479139
H        -0.28460513242356    7.17503799092026    5.49126129591567
H        -1.41261019235715    9.32050539365160    6.15476342836636
H        -0.09932831535191    8.87483797538894    7.25502959770331
H        -3.09326156436861    8.46881961696185    7.72726574870181
H        -2.03049027219556    9.59040209652811    8.57851997891251
H        -2.37398028221526    7.55746668266254    9.95638739920596
H        -1.73802109839205    5.32405277350078    9.08801554850031
H        -2.87185763009261    6.04093114254973    7.93566360312624
H         4.54213038853286    7.42187571439432    9.77343792625202
H         2.43556067173498    9.61485661161989   10.12976002713488
H         3.66106062723497    9.52622577635050    8.85579335312004
H         4.32813340135855   11.11570137888494   10.64499843316759
H         5.46542550276891    9.77457025077109   10.51702707816010
H         3.21732197148682   10.00922481030392   12.56629092417780
H         4.94024204601236   10.22098196410902   12.88741950390755
H         4.18827207625958    7.93241439433168   13.51727883908915
H         5.37888633668093    7.88324227291708   12.21846765927678
H         2.34627870057792    7.67917601752180   11.88810741828596
H         3.50267869378443    6.35137391052246   11.72891159406211

