36
CSD_code = OCUJOL | q = 0 | S = 0 | Stoichiometry = C11H19Cl2FeN3 | MND = 5
Fe        1.47277128477568    6.15782988181871    1.25039214014299
Cl        1.22631162269224    7.89537220592600    2.27432021989646
Cl        1.98777672099216    6.09333925992849   -0.82302111059979
N         3.58913364919215    5.79133389893496    2.14287737736515
N         1.44474288572831    4.32269825526214    1.32891616599082
N        -0.81738119230778    5.81251712280388    1.04636419039894
C         3.81228916720358    4.42525076435992    1.65888144130056
C         2.53489896446180    3.63731147940755    1.74085472367895
C         2.46363464710358    2.31883762250171    2.13881987332835
C         1.24608860852719    1.64972212069294    2.07660725287140
C         0.14733353773118    2.32983153573585    1.56255961512465
C         0.28252287025254    3.64800334548967    1.18062846177470
C        -0.80069905947285    4.44726585535050    0.51180910993097
C         4.60921940457139    6.70475139227586    1.64781486387320
C         3.55023768688531    5.80501258373342    3.59937232456776
C        -1.47885137266521    6.73368227885134    0.13310918800409
C        -1.46442396284074    5.82973299084771    2.35182073390885
H         4.07975861554259    4.49101327668517    0.59866349134209
H         4.62666918404447    3.92567244129868    2.20394833953882
H         3.35403903201024    1.81263776445876    2.47788881021374
H         1.16319602476572    0.62198841491978    2.38988871770162
H        -0.80263759156986    1.83223824275478    1.44415365383087
H        -0.54043938723173    4.51239807425786   -0.55019977327841
H        -1.78000050105862    3.95636936285615    0.61168118589895
H         4.56486059825159    6.73101469608017    0.56026898971294
H         5.61666387337967    6.40476431870809    1.96532829576379
H         4.40013568896492    7.70363873512540    2.02574819850700
H         3.29185408203090    6.80370388007496    3.94465785020214
H         4.51895628130899    5.51407786793181    4.02911727682030
H         2.78734979065969    5.10881923734855    3.94733318841861
H        -2.52033096223211    6.44327802714004   -0.05847770312646
H        -0.93026751139362    6.75680956409623   -0.80706096764949
H        -1.46209155899434    7.73166637722583    0.56680442432734
H        -1.38949720865364    6.82726893667956    2.77915453672342
H        -2.52397470859216    5.54746116112813    2.27790586643132
H        -0.95874920406475    5.12848702731215    3.01536904706789

