72
CSD_code = OCUKAA | q = 0 | S = 0 | Stoichiometry = C34H31ClN4OTi | MND = 9
Ti        3.75700871160201    3.40168539667930   12.82281319397404
Cl        3.10230180671239    1.33955687838959   12.59895613670338
N         2.43074204666714    3.52663324866364   14.39487548870884
C         2.07703061647851    2.80462699411900   15.49571467378290
N         2.62380987459038    5.07245174021580   12.49737255768007
C         5.40789536882451    3.14129753212507   14.45584466863723
N         1.15067839171314    4.87213391780390   15.72339588750764
O         4.86470769164975    1.76588155929738   10.17343545225602
C         3.26242608322226    4.80622755445488   10.29617574243495
C         1.82755271216106    4.74328900549190   14.59398875355687
N         3.75870250495605    3.64093151789767   10.80123204288586
C         1.32011393749571    6.90157320446765   13.29513447132901
H         0.78776105315706    7.33919828893821   14.12430049332062
C         5.96377134815287    4.02408826808677   12.39937667897545
C         0.77629876817521    3.20245864803218   17.54231448527830
H         0.18533494327560    3.85571273705771   18.16480195428520
C         5.94345394832004    2.82506750105585   13.17030588889345
C         1.28642331593061    3.66228649472450   16.32796047791016
C         5.08747513898274    4.52728872557908   14.46896384518377
C         1.54906717568573    2.55718807569914    9.28150458622198
H         1.28232923696819    2.93788060153553   10.26408654004586
C         1.92664636089531    5.63846586846113   13.47713155713419
C         2.31451775791372    1.48180873092253   15.86848762010778
H         2.86586227178958    0.81731742333181   15.21926122070683
C         1.79319909071202    1.05433121802267   17.06773316576780
H         1.95656277058213    0.03353701284560   17.38190315783846
C         2.65451273719146    5.62978378116645   11.28207312666569
C         5.40807708964193    5.06674923825852   13.19302233636414
C         2.88355715860361    2.30271707031397    8.97729847636157
C         5.39947966111489    6.52333066591113   12.83014292776706
H         6.36114981362505    6.97418317833230   13.08833248194854
H         4.62195059852902    7.06386597914002   13.36975860098765
H         5.23955249153942    6.66429688268576   11.76101809741027
C         6.59124180491793    1.53040374101819   12.78006320526658
H         7.67836882292950    1.63492504526324   12.81599783923314
H         6.30451458898127    1.25043312218727   11.76691795632055
H         6.29782180281215    0.72836212444956   13.45482409608013
C         3.21154594171314    1.75518401290833    7.74226958147771
H         4.24651682362164    1.53667584139907    7.52459298637879
C         2.22286284825624    1.50624028261326    6.81103496983560
H         2.48477097393965    1.09217611757805    5.84779482860172
C         6.68943701930304    4.20449815589305   11.09974083976159
H         7.73688338448533    4.44307307690314   11.30295186080204
H         6.26521041769704    5.01803132117610   10.51227632899434
H         6.65634243780255    3.29044605644437   10.51140207828480
C         2.06265381129866    6.87875736969001   10.99434366876424
C         2.15291710880807    7.33937040643884    9.66826738636455
H         1.72637992184912    8.29506185107582    9.40634573835521
C         4.69923703785016    5.32491532450449   15.67732691069314
H         5.60094204032532    5.67983648009613   16.18324515304446
H         4.13201248220173    4.72633251391925   16.38815433854070
H         4.10048777600193    6.19491146169824   15.40985629352189
C         1.41330649220809    7.52208576278824   12.07804297177720
H         0.96533564617408    8.49261759380590   11.91970387916425
C         3.31612338201953    5.30275558563232    8.99963838915194
H         3.77175621978306    4.72446091632740    8.21032816019869
C         0.56555913017914    2.29148114017322    8.34872555924496
H        -0.46914112152286    2.48406989869222    8.59408661112284
C         1.04524504506288    1.90283520839083   17.89768464851562
H         0.66399924218692    1.51367377767954   18.83066131411685
C         2.77075112924046    6.55885138290412    8.71691280261793
H         2.83262649494201    6.92151687012360    7.70123064666170
C         0.88868797941626    1.77435484949888    7.09925502346443
C         5.46581465311209    2.24225922341272   15.65503337161331
H         6.46738975811037    2.28876049171694   16.09136705954236
H         5.26502210743982    1.20751933401654   15.38274897560847
H         4.75058694414652    2.54370460375360   16.41734701499491
C         3.93617567177631    2.54096356407203   10.00745903534762
C        -0.17824889773834    1.47735485057328    6.09107985134881
H        -1.09393021180302    2.01640273171998    6.32149040853554
H        -0.40205660254795    0.41012128507083    6.09188776113765
H         0.15029741631322    1.74783168456892    5.08959366695310

