44
CSD_code = OCUKOO | q = 0 | S = 0 | Stoichiometry = C21H15Cl3F2N2Ti | MND = 9
Ti        1.85093477694816    4.27847768993054    3.25771405081810
N         1.31786791228510    2.83359463223621    1.95265192014098
N        -0.20691827745068    4.74287499406682    2.81944703857196
Cl        1.96425132017007    6.51604265726381    3.35394332818610
Cl        3.68566672890188    4.42165047070764    2.02909282621841
Cl       -1.59907985259688    1.71285410547887   -0.43676376975977
F        -0.41270620405303    6.67951915515924    0.94674066064694
F        -1.24877151293522    5.31367764635316    5.35234280862221
C         1.90045055135054    1.76478483293045    1.35450105688726
C         3.17639384363209    1.21772621518136    1.53855939582268
H         3.87160897661162    1.67630888518202    2.22488633559299
C         3.52244630364779    0.11165026905971    0.80309070313663
H         4.50428711380206   -0.32070163385669    0.92701174604319
C         2.63748939746752   -0.48109576396736   -0.11553768841595
H         2.96249033425298   -1.35045418606889   -0.66689233160782
C         1.38446833466815    0.03079191122109   -0.32047172943207
H         0.69800116249316   -0.41147950307691   -1.02634858256032
C         1.00139456519679    1.16213338401876    0.41340192358377
C        -0.16925900090910    1.93717875278457    0.46093379628333
C         0.05998164570823    2.94836297177451    1.40538367219016
C        -0.70646856986756    4.03254282261468    1.85185559120567
H        -1.67049567677863    4.26539467449793    1.39756226045937
C        -0.83216157823277    5.95439777462739    3.13116121040559
C        -0.93318299158526    6.95479918977479    2.15908456972413
C        -1.49154210603621    8.18783966325420    2.41946128378179
H        -1.52600429534889    8.93021945827864    1.63889437123621
C        -1.98291404052485    8.44463788004026    3.68975068352962
H        -2.42229471332318    9.40429265577948    3.90859282242249
C        -1.90421853182748    7.48264823402894    4.68223408767023
H        -2.27634870067983    7.66820446458735    5.67676639858813
C        -1.32873343945662    6.26036002302314    4.39406794726104
C         1.90411098981167    2.33024750382044    4.64989130714836
H         1.71288891095091    1.30594084836073    4.35926878895426
C         0.95175872128479    3.23385447120386    5.17125392723060
H        -0.08794085540724    3.01110617731252    5.37044006450651
C         1.63483520105393    4.40741333558037    5.56358493161249
H         1.20789922065327    5.24540653095696    6.09895587470277
C         3.00998107634858    4.24400625377945    5.26353194647490
C         3.16764647849206    2.95119935288592    4.70110925991788
H         4.11866171877928    2.49118463824730    4.46734122390005
C         4.11862044908990    5.19596234456468    5.59314902426172
H         4.59584688677410    4.90233320066563    6.53099598429762
H         3.73445203506711    6.20935419013081    5.70219369568520
H         4.87360569156829    5.18785682560332    4.80576558404966

