41
CSD_code = OCUKII | q = 0 | S = 0 | Stoichiometry = C20H13Cl3F2N2Ti | MND = 9
Ti       10.06706831736203   14.12549263572325    2.84136609978207
Cl       11.67392426134802   13.45212572546590    4.20177138497965
Cl       11.13626607101198   16.09476599773012    2.84443014595542
N         8.86869835678256   13.03937094127872    4.04401012004640
C         7.77833885632144   13.69217612499044    4.57413292280639
C         9.46328960191127   12.33917403764383    1.37331913567098
H         8.87681699528583   11.46328972625515    1.61588864202618
C        10.86880156647239   12.42403092834817    1.39333461072975
H        11.55696856200107   11.62962873040029    1.65022822749051
C         7.58386416185240   15.00660392415510    4.12962121098433
H         6.80310483583099   15.63872147469378    4.55469606616537
C        11.23947319898616   13.68498229895760    0.87280173959054
H        12.25257758711764   14.01811779723508    0.67690564977470
C         8.90302281192600   11.81430560157062    4.62617283698151
C        10.05736732705396   14.37389432751563    0.52105818584742
H        10.01538180102355   15.31999689253611   -0.00149952374537
C         7.80594274669255   11.65860180127742    5.53620021463184
C         8.95839955156939   13.54972170719819    0.84481651937187
H         7.92431202912479   13.74712994003023    0.59499695018536
C         9.81052346615949   10.76258888477909    4.45067000474468
H        10.65512447051510   10.87660691627625    3.78842526973403
C         8.35020075985710   16.78358701173513    2.86183239295030
C         7.62922306268863   10.46370275722595    6.24755098700595
H         6.79976869132826   10.36036764961339    6.93040932891532
C         7.10071152357346   12.87346999746324    5.48896227258335
C         9.61177605018465    9.60624144730667    5.16357124140111
H        10.30415700477018    8.78590075716860    5.04587932351438
N         8.38090422097022   15.42428856823935    3.19100817345304
C         8.07628982684573   17.25261397458004    1.58130947734025
F         8.95382950839074   17.29174751165118    5.06369601269673
F         7.76956729935175   16.34657493121865    0.62919996314313
C         8.40625724655394   19.51589121482678    2.26010546833753
H         8.43355531466496   20.56738706642900    2.02447207521990
C         8.65345725194518   17.74467135076573    3.83121474570112
C         8.09510421259567   18.59855536708692    1.27092100505096
H         7.87326057670523   18.91058613602794    0.26323871101289
Cl        5.69803814139042   13.29191970659144    6.35783294391385
C         8.53159725106472    9.45284825007690    6.05101707433402
H         8.42349215912619    8.52119900024061    6.58545572626972
C         8.69187272443321   19.09347313739319    3.54900983289878
H         8.95277059721108   19.79134775029911    4.32776683050387

