101
CSD_code = OCUMOQ | q = 0 | S = 0 | Stoichiometry = C44H50Cl2N2NiO2 | MND = 4
Ni       -1.68730320666156    9.85409239409401    5.40145708747932
Cl        1.91407736449590    5.85964591963163   10.18554404804835
N        -0.48976585740984    8.34985209415898    4.95487718254822
O        -1.13876660068226    9.87446369805281    7.20052445102422
C        -0.49712346554339    8.98419546130297    7.85524280125457
C        -0.32704073940952    9.04961454841088    9.26364484350084
H        -0.78006123364533    9.87513085319599    9.79050991383725
C         0.39382133643138    8.09624471492169    9.93700609163970
H         0.50843146043901    8.17130815449461   11.00811357012723
C         0.99677413094051    7.01770552343717    9.27357646437141
C         0.86473017814335    6.90837504762259    7.91338193891129
C         0.12196648536098    7.87930054094382    7.23090831969087
C         0.14759808221543    7.64897922594370    5.82964176579438
C         1.06894171122646    6.48597119011281    5.56193397981920
H         1.97748984105574    6.85090555818010    5.07716686041530
H         0.60682883971371    5.76841341213052    4.88414924210506
C         1.37437131149440    5.87378837731726    6.94735495308330
H         2.44665387777014    5.70928740110949    7.08625219413784
C         0.64404058503214    4.54399444446716    7.14703647269738
H         0.82210468018984    4.16528693425062    8.14980541972560
H         0.99726201323383    3.80535577104187    6.43081273918172
H        -0.42707546954530    4.68164504713929    7.01387292116311
C        -0.28794415553466    8.08224474199186    3.57807931496172
C         0.71494293468477    8.79269968869528    2.90045324881771
C         0.85322616660835    8.58956685437886    1.53661465994549
H         1.59851369895968    9.13616569964792    0.98172904027945
C         0.04063790606085    7.69296878085603    0.86534931145957
H         0.16048484359547    7.55310900271785   -0.19914784911701
C        -0.92169679298472    6.97955622641960    1.55165125169775
H        -1.54727206668794    6.28097964281068    1.01682526528007
C        -1.10397567464917    7.15998627636337    2.91561747163946
C         1.59141864342360    9.76900988864901    3.65950750874193
H         1.79664680182996    9.34478526295417    4.64984728725912
C         2.93836125751499   10.02217343025640    2.98213415893663
H         3.42478363681962    9.08448897952333    2.72153114729290
H         3.59018425301059   10.56875174502964    3.66069460308146
H         2.81950874459860   10.61917106784340    2.08134989499988
C         0.85336032308993   11.09683550947950    3.86883259575682
H         0.52405126708310   11.50296469432205    2.91448603825229
H         1.50778680655147   11.81699495088990    4.35595841575816
H        -0.03315089211909   10.95210476833858    4.51333386633883
C        -2.18360589471672    6.39842083185710    3.65020913665477
H        -2.12124581125986    6.64178715467690    4.71632078595824
C        -3.56469767110071    6.83721284734149    3.15734974900224
H        -3.67759434151619    7.90909612775795    3.29614501033414
H        -4.34415010433983    6.32484453736008    3.71773491195383
H        -3.69191877119557    6.60968603100590    2.10150081988971
C        -2.01192879522769    4.88555701455616    3.49202869337488
H        -2.74153107556880    4.36187969672410    4.10606877699299
H        -1.01695962344613    4.56812421328450    3.79787948463449
H        -2.15995999039265    4.58301100457834    2.45864391539330
Cl       -5.28879081421851   13.84871339162560    0.61760441805122
N        -2.88500265908897   11.35813692614632    5.84813012868079
O        -2.23564300933003    9.83388694902840    3.60232749605924
C        -2.87730468098061   10.72418170494826    2.94766147776131
C        -3.04704013925923   10.65910081238579    1.53920396433198
H        -2.59369053244871    9.83384642625451    1.01222318133386
C        -3.76797106576516   11.61247738020164    0.86592144718037
H        -3.88227469274712   11.53770219801252   -0.20523499820116
C        -4.37139023306338   12.69066235720476    1.52948932463224
C        -4.23970272722747   12.79965813892191    2.88974265370659
C        -3.49677652099547   11.82878909297140    3.57212012532904
C        -3.52259045885860   12.05887336437400    4.97341519727333
C        -4.44437240886552   13.22150508432118    5.24125390461787
H        -5.35281069888815   12.85615084236182    5.72592033053943
H        -3.98256584673759   13.93912844991377    5.91918940534183
C        -4.74996011056638   13.83379441453854    3.85591833872885
H        -5.82230735859820   13.99774235502944    3.71692494208358
C        -4.02034633727425   15.16402045311782    3.65663185094281
H        -4.19841232163211   15.54279905620057    2.65389118464014
H        -4.37414734204033   15.90232891347852    4.37290291088824
H        -2.94919392227790   15.02695409404633    3.79001103886625
C        -3.08695636934292   11.62578857864943    7.22490571493759
C        -4.08998936210038   10.91546933045812    7.90245193623984
C        -4.22876423088419   11.11910281324444    9.26617086463406
H        -4.97425110093156   10.57270567851950    9.82098816612227
C        -3.41647157595892   12.01599757428967    9.93739275334510
H        -3.53676474401017   12.15632082245740   11.00178028344275
C        -2.45382084402463   12.72909114178808    9.25119519780657
H        -1.82840406976840   13.42782655686583    9.78599615676730
C        -2.27105033146362   12.54816601141946    7.88735949471363
C        -4.96606997821772    9.93874168453608    7.14347237585373
H        -5.17112517020072   10.36259393186346    6.15294242280519
C        -6.31312632345357    9.68542150056149    7.82054107033775
H        -6.79970874648358   10.62305025680135    8.08102432652769
H        -6.96476158900253    9.13874871303380    7.14187525122838
H        -6.19436173434080    9.08847442537150    8.72136626866452
C        -4.22765127414663    8.61102369476063    6.93472389450433
H        -3.89852884904201    8.20523736100636    7.88927631791737
H        -4.88175238712381    7.89057007119697    6.44759421714591
H        -3.34098313142337    8.75579039624856    6.29045443267630
C        -1.19092100628762   13.30920373906597    7.15294501741035
H        -1.25283254603067   13.06542488500680    6.08687411777157
C         0.18983283191853   12.87019979162509    7.64662442208225
H         0.30247435617783   11.79820920544703    7.50835663630348
H         0.96968818386381   13.38206556009100    7.08634429637091
H         0.31664250040709   13.09816905202772    8.70245615012243
C        -1.36229118440781   14.82218111689964    7.31045490580556
H        -0.63222078618768   15.34533487705137    6.69645947787177
H        -2.35710919712252   15.13975289903112    7.00392510938106
H        -1.21465840748751   15.12515294332370    8.34385862229815

