74
CSD_code = OCUROW | q = 1 | S = 0 | Stoichiometry = C21H47ClN2P2Re(1+) | MND = 5
Re        2.34925452067610   11.34784522156670    3.07033343026993
Cl        1.41962190639933   11.24775829610470    0.95889318940744
P         3.12899643764744    9.00662322352508    2.82270870882106
N         2.02939396544374   10.74770804355446    4.89308853247116
C         2.66911386251602    9.58118987387827    5.49838751705190
H         2.08244458754127    9.25063398394176    6.36506122992431
H         3.65770283087958    9.87696670898317    5.87395333641428
P         0.60521663613750   12.93860048626504    3.70971884717355
N         3.75056768744909   12.34783915750215    2.75300680688014
C         2.79296701537898    8.40221799979004    4.53233930352016
H         1.83807874669070    7.87221727163251    4.50690791431956
H         3.56121486515626    7.70306408231685    4.86566523752877
C         5.00743975920018    8.95201838085819    2.60043921983238
C         5.59859952252050    9.69199230091283    3.80550425895578
H         6.64599658528911    9.91957801208065    3.61763952122223
H         5.55335481229984    9.07724079139611    4.70116117671805
H         5.07122486957116   10.62959868024745    3.98992802807055
C         5.34447798900714    9.70818189826284    1.31221554955231
H         5.16480724362694    9.09762696027000    0.43294827435212
H         6.39621815837226    9.98788836498819    1.30820898617860
H         4.73865848812008   10.61115600021799    1.22545869748926
C         5.60340371598353    7.54797645506614    2.55603658142541
H         5.34621526020035    7.02644133382063    1.63862572299763
H         5.29355093030174    6.94858937133568    3.40985891280626
H         6.68888740992374    7.63030578496870    2.58814735026501
C         2.23649728454237    7.73191569321750    1.74305663190311
C         0.73603223640202    8.02215419594777    1.85261137398642
H         0.49399576255447    8.96184088314197    1.36138752561397
H         0.39692394791152    8.05445580605434    2.88856435112556
H         0.17714384075851    7.23507564454221    1.34985469273756
C         2.66215507334533    7.90473944405733    0.28576695351467
H         1.98571526943001    7.34514409081413   -0.35782417935134
H         3.66672260311876    7.52785613787828    0.11458285925087
H         2.61558334368433    8.95146455141419   -0.00970559507259
C         2.49074393117132    6.29565339042348    2.20536420720406
H         1.95130706567664    5.62461775525357    1.53858338471177
H         2.12473896929727    6.11647245430986    3.21324091602078
H         3.53857921430167    6.02259038485510    2.16320976287400
C        -1.17818886403184   12.35016598757425    3.46172887481470
C         0.91849237270929   12.90147237327546    5.52339161962029
H         1.75943117370019   13.57300922891332    5.69705451648925
H         0.06756113924406   13.25074691816437    6.10748229149075
C         1.33685085186551   11.49128693363370    5.94212612442245
H         1.99684277603172   11.57160302282710    6.81812821536708
H         0.45760620595391   10.91414795522638    6.26606428775791
C        -2.12738952750489   12.92401865197177    4.51353580857766
H        -2.09304645293575   14.00794589476950    4.55828620534160
H        -1.91974949137175   12.52295753485351    5.50344549248284
H        -3.14490810974674   12.63624810972189    4.25323712654303
C        -1.15516129352026   10.82393147308154    3.59087483553301
H        -2.15873974577277   10.42950172957009    3.43910995290277
H        -0.82014209506303   10.50465777708432    4.57611175976801
H        -0.51045195214519   10.38562918685947    2.82977872280502
C        -1.65862719444051   12.70214508439830    2.05385260647293
H        -0.94260199022294   12.36695752564885    1.30525084883904
H        -1.82734642713830   13.76901700131793    1.93740025051953
H        -2.60380540298477   12.19730617620902    1.85966767120409
C         0.88870610893995   14.73355217500785    3.18950448071826
C         2.18578023066500   15.20385426651084    3.85588296009204
H         2.92837755485738   14.40580866667533    3.85707311064108
H         2.01397810791157   15.53850896365898    4.87614200138072
H         2.59172038453537   16.04633391346048    3.30021466503428
C        -0.24508357252060   15.67007716749460    3.59659427235926
H         0.04626271911567   16.69250283326679    3.36086577079865
H        -0.43476143614644   15.61829520170888    4.66734202080859
H        -1.16437455477136   15.46151713189131    3.05731277415213
C         1.09277874656176   14.74196967390472    1.67347966414978
H         0.20248667432222   14.42612716644249    1.13889293891779
H         1.91081452755863   14.07436608024389    1.40127645524051
H         1.34280710390352   15.74718001709454    1.33992019268830
C         4.91226426648134   13.12234078582776    2.67107341634676
H         5.70758774150757   12.54819350133586    2.18254080121278
H         5.26319401564595   13.42384603376856    3.66601404874998
H         4.72898906028549   14.01683874121007    2.06501399760175

