25
CSD_code = OCUROV | q = 0 | S = 0 | Stoichiometry = C10H9AuCl3NO | MND = 4
Au        2.64094433576828   -0.46642978134112   12.79750149060197
Cl        3.91690676256985   -1.60252221430690   14.29043583513397
Cl        0.71638034931265   -1.00570175661395   13.85389606700014
Cl        4.45986600790457    0.07261817715731   11.52379181175736
O         0.70115550644209    0.91014523812629    9.26116976522993
N         1.82149349874123   -0.54805184572472    8.09605231352761
C         1.50183655852551    0.52058242302274   11.49456170481239
C         1.47521454100468    0.20471866195351   10.21831361889601
C         2.24462657850542   -0.84186065215036    9.44880191317888
C         0.96092900290219    0.45107846471319    8.07883183899999
C         0.32871457411374    1.02075453587558    6.90923388196443
C        -0.54504541275574    2.10249683764206    7.07661176569966
C         0.56577382578105    0.51721535262046    5.62453820529722
C        -1.16563788878836    2.66573219217456    5.97985329698060
C        -0.06165496421546    1.08964494382835    4.53644125361118
C        -0.92570125237113    2.16186174732332    4.71012555704409
H         0.87806247104337    1.33091591671099   11.83893532910387
H         1.97531904558261   -1.86338610378816    9.73704607096502
H         3.32547052963547   -0.70712017649690    9.59824380761687
H         2.18758009346516   -1.02891609699990    7.29210991282893
H        -0.72283781494558    2.48607210651852    8.06884660142721
H         1.23283015270074   -0.31725010504058    5.47210355577936
H        -1.83749166102308    3.49909804706880    6.11302619194799
H         0.12176678333983    0.69957741770634    3.54735209363997
H        -1.41140162323123    2.60312667002893    3.85357611694887

