62
CSD_code = OCURIQ | q = 1 | S = 0 | Stoichiometry = C18H38FeNO2P2(1+) | MND = 6
Fe        6.67323585477787    7.96071256013993    4.35846860274110
H         7.49037355242094    6.79481717873455    4.13355009294670
P         7.96139704525773    8.31135472883119    6.10326947335460
N         5.54616173663224    6.73025304090602    5.70046445651381
O         8.52957192698041    9.34800242983118    2.64011652598175
C         6.37758990553707    6.18479484068017    6.78661532523680
H         7.05635557549533    5.45428001462130    6.34179131273742
H         5.75034647000783    5.67109274978888    7.52687612725471
P         5.39618634347333    7.12971491901189    2.78223499885028
C         7.17848879665819    7.29788157497477    7.44778577083658
H         7.93144313111280    6.89047051839801    8.12544353234923
H         6.51236011727412    7.94518926684579    8.02234051105676
C         4.80724357247157    5.65372039227630    5.02143684491004
H         4.06364757880141    5.21264753721147    5.69786059730527
H         5.53165467955848    4.88108024322868    4.75685270488571
C         4.13608796302423    6.17656496313198    3.75906426132370
H         3.32869701007587    6.87026580713795    4.01762557804753
H         3.71360675822795    5.35482301129581    3.17712251236900
C         9.73382610709944    7.73183346671688    6.01142796929265
H        10.12118318653163    8.19242614337700    5.09245829215055
C         9.79459645134482    6.21605159349991    5.83869900395010
H         9.13483331864319    5.89154559167611    5.03735627421917
H         9.52236474550052    5.70320294547917    6.75880168906502
H        10.80738907666259    5.91860357887914    5.57744006057300
C        10.59385456830129    8.16368955188605    7.19809995569874
H        11.54976896712072    7.64628611147509    7.14731788139011
H        10.12666802718444    7.90251755806595    8.14637830223584
H        10.80068357336277    9.23031027544096    7.18545756020922
C         6.09156920389045    5.91824191512394    1.55711350419351
H         5.31000046772714    5.74750260407403    0.80696632569390
C         8.60890762600732   10.95328401106070    5.78223494880967
H         9.52644662333137   10.57781028276550    5.33062029358863
H         8.81625164414737   11.93385824948736    6.20527232125322
H         7.86490658908803   11.07319253722697    4.99555951878274
C         6.76082392018752   10.49825030464220    7.42845863826323
H         5.93404046303290   10.27523622155756    6.75738737622904
H         6.80123234945731   11.57775246582476    7.55629309774066
H         6.55035142713915   10.06433044350445    8.40326254144511
C         8.08986316570962   10.00539958741509    6.86144430646194
H         8.81517523970452    9.94609202114165    7.67901200359560
C         7.32208269455624    6.53809498369856    0.90091892885085
H         7.69872189727680    5.88414825178460    0.11745868891761
H         8.10656201180415    6.67073744497478    1.64366404930013
H         7.10211614311210    7.50693712427615    0.45972876891660
C         6.46526993584743    4.58854518584789    2.20234606084361
H         6.95865212715854    3.95878448903949    1.46503477019128
H         5.59407116390751    4.04946117119558    2.56748447518097
H         7.16398887006885    4.74992960100944    3.02125362621774
H         4.85627712718030    7.34796727650412    6.13286511188047
C         4.28048573923457    8.26446048573276    1.80924470380913
H         3.70063828614396    8.76424351997666    2.59993017493724
C         5.06217744592985    9.33454876596797    1.05183354594454
H         5.50398779858976    8.92991766809763    0.14461188340744
H         5.85560853970636    9.75379167773650    1.67049331087768
H         4.39459747700108   10.14304140372754    0.76113747700733
C         3.30838221178572    7.53859770508063    0.88315442004505
H         2.56163821594279    8.24553244353884    0.52738346116726
H         2.78875402316702    6.72961602825097    1.39170640565957
H         3.81911204559373    7.13817382839177    0.01106584098298
C         7.76621915437699    8.81515853278216    3.29900148075220
C         5.66295682804457    9.39329367390826    4.47408409264215
O         5.04151550460891   10.34893550111216    4.38121762892483

