53
CSD_code = OCUTUB | q = 0 | S = 0 | Stoichiometry = C24H26N2Zr | MND = 12
Zr        5.61541551330341   12.39326461071036    3.71272388007251
N         7.05584412900910   13.53999699501475    2.86929617577836
N         5.80811643866496   10.81681718514353    2.45557317512104
C         3.94027176503747   13.41521256397215    2.12885075546624
H         4.01859583496560   13.41507305637905    1.04887245726886
C         4.32725918271387   14.47331719099108    2.97932754117803
H         4.79467336644233   15.39674931166598    2.65701231058484
C         3.89668179472443   14.21038525556651    4.29247240959790
H         3.94546794534660   14.90976527801040    5.11683380294947
C         3.15415880672751   12.99670967121321    4.26801402721764
C         2.34598833266803   12.35025310989997    5.22348065871717
H         2.24595103997068   12.76233252130333    6.21926210103011
C         1.64668312540750   11.22479933742179    4.86570095031477
H         1.01603977531346   10.73017408811441    5.59061940984957
C         1.70537904135124   10.71582273445733    3.55711164414944
H         1.12062448743935    9.84096037262121    3.31211630667650
C         2.45116016517462   11.33412593024093    2.58463496981004
H         2.42294625913712   10.97773007960298    1.56323676176570
C         3.19479171435739   12.48561576802375    2.91210873650905
C         5.16876314059905   11.17334915518530    5.91138895831314
H         4.23169526117484   10.73029710447624    6.22264699533782
C         6.22617187309752   10.48214334468296    5.29117412288200
H         6.20024857932746    9.43383546818081    5.01610477895102
C         7.35836520138746   11.31993263151534    5.20476561307518
H         8.34914004517657   11.01028522762887    4.89690072110438
C         7.02951072721425   12.55381717354752    5.83808166153845
C         7.79226519790617   13.68789962702213    6.18138545188707
H         8.83720564604677   13.74344865275800    5.90572933978738
C         7.21739290690907   14.68381304535220    6.93065260144339
H         7.79856303486255   15.55066630235255    7.21022835830167
C         5.89187922585896   14.58128137572367    7.38606882720907
H         5.48989211886792   15.37104917697267    8.00458019242608
C         5.11991158286428   13.48597055049348    7.08932489224926
H         4.12195688472662   13.39398393225069    7.49802877057229
C         5.65704064448115   12.45450807411491    6.29420533927223
C         5.26858781551033   10.41841316426873    1.14566632842610
H         4.91894862626449   11.24503599242236    0.50674682433271
H         4.46351206124931    9.67282561010906    1.22315567095613
C         6.62243209467207    9.82569431736781    0.73401629103864
H         6.61835413691025    8.75415745901152    0.54537502627197
H         7.10829383670988   10.33594118867789   -0.09580442740536
C         7.12499241451211   10.24010642274903    2.12364666514242
H         7.40769200372883    9.38984570141996    2.76456866903663
H         7.95637563999782   10.96334434347476    2.11171150572148
C         7.13365131958201   13.74641879987439    1.41045357784604
H         6.61548729640774   14.65513717772686    1.06507867913890
H         6.78817509053648   12.89319547260679    0.80443269014191
C         8.65921082739888   13.89550158843347    1.48659038990528
H         9.04219963389541   14.86918004247699    1.18815629524063
H         9.21937417972877   13.11534294629292    0.97421034344301
C         8.51362222308030   13.69209366896380    3.00026190130952
H         9.04632585529648   12.81222494061066    3.39533140502942
H         8.80071415626251   14.57085526090468    3.59618746601294

