45
CSD_code = OCUTEL | q = 0 | S = 0 | Stoichiometry = C22H20MoS2 | MND = 12
Mo       10.31874690064579    3.01378759496428   18.24480141495762
S        12.40180052009789    2.09328719936549   17.23576155700592
S        12.04023398939774    4.75731662048502   18.51549447541925
C        11.98098283887189    0.48049168216579   16.65983374047024
C        12.19009400834304   -0.62811042715145   17.47297441209824
H        12.60022734046769   -0.48747009392592   18.46215797842128
C        11.89904903650342   -1.89701286434660   17.00764705707315
H        12.05992872897514   -2.75266238203038   17.64782454921411
C        11.41490167450980   -2.07421893812320   15.72193963978431
H        11.18634168682293   -3.06592040507041   15.36044444195559
C        11.25083456548229   -0.97676410659038   14.89279221403232
H        10.90451206854260   -1.11246015278713   13.87814274971482
C        11.54131956181413    0.29383903505980   15.35394030593922
H        11.44932591089319    1.14835063106511   14.70002038102912
C        11.39485004688153    6.17390652544291   19.32050920993019
C        12.27815017110985    7.23493558540083   19.52255674987583
H        13.29687484607540    7.13382722502345   19.18089504273564
C        11.85134190884762    8.38801855679918   20.14781442232606
H        12.54542255708101    9.20198287292912   20.29842150904002
C        10.53942960384527    8.50565945587524   20.58201465539196
H        10.20591256727800    9.40888819337713   21.07059287220831
C         9.66124140018671    7.45483098063568   20.38400902954415
H         8.63643640887574    7.53526900911522   20.71894285757245
C        10.08361716956165    6.29590809086204   19.75857573721130
H         9.39402425895123    5.48155071439620   19.60943942526346
C         9.28912606531503    2.49875430310729   16.28294637572839
H         9.32458063098053    1.57080608374553   15.73458846040149
C         8.26664929437626    2.88803401822196   17.17752304690520
H         7.39110171326332    2.30080998581576   17.41967010082629
C         8.42691797042518    4.26850404138294   17.47101546815298
H         7.73143481698930    4.87176178961125   18.03559724473729
C         9.52552461761892    4.74118731069570   16.74641333116528
H         9.86199027817261    5.76767838488066   16.69349393450228
C        10.08433813996447    3.65570681132516   16.03306547974824
H        10.85180738511748    3.74769636953521   15.27235582416674
C        10.61995356134726    3.04093339340701   20.64237939894701
H        11.11709297431770    3.80093765599291   21.22948523565789
C         9.24691630494356    2.95512578800286   20.39476406565197
H         8.48653848569114    3.61040352583571   20.79369098981937
C         9.00150954525113    1.75070586383972   19.68340898309942
H         8.02625833758818    1.31032293339243   19.52606314580445
C        10.23484055886186    1.09723284117132   19.47004912499378
H        10.35739441882700    0.08199843530496   19.12757004651996
C        11.24634221092115    1.91811754303750   20.05154530541369
H        12.28108291997353    1.63435231877686   20.21062800956764

