54
CSD_code = OCUVEN | q = 0 | S = 0 | Stoichiometry = C23H19CrFN2O8 | MND = 9
Cr        0.49835194053311    4.82924807102401   15.41373250333167
F        -2.46048811519930    6.08742944896555    9.01149162786739
N        -1.49376199590873    2.06609871476681   15.07138258296590
N         1.80807620868987    3.65195673323398   11.45941952293871
O         2.65392293660325    3.24595180193733   17.39045957557612
O         3.69547705558409    3.96921713914040   15.47198441695615
O         2.59084100560049    1.83346586679892   10.18957751215778
O         3.47624371721520    1.71448206644071   13.26627439424836
O         5.64520785639323    2.04103690930017   13.76334016666958
O         1.24421911036923    7.48538300770786   14.30643111107239
O         0.75866097608494    6.57822902769936   17.80614450595940
O        -2.22517890050313    6.01366506829270   15.18220174258512
C         3.77814243885489    3.93911250590395   16.88108117479729
H         3.77282217605395    4.97295085086146   17.27075727685444
H         4.69761780659323    3.42683274410736   17.18412460431843
C         1.75612155862795    3.20535433676631   16.35597279302484
C         2.38771861081421    3.63892814192409   15.19104462744722
C         1.71388991041641    3.62725272420800   13.96948841855843
C         0.40371668645991    3.10282204714361   13.95930534331379
H        -0.07152354006187    2.97586225003269   12.99923073817416
C        -0.24142450920460    2.62442094956330   15.13370202084370
C         0.45045485565792    2.71446908068581   16.37182949885680
C        -2.24920336001042    1.96349172164840   16.30426575293952
H        -3.24758299600788    1.59793063677411   16.08092449886212
H        -2.33467081837384    2.93370087098167   16.80796539259257
H        -1.77921504746769    1.24707279267014   16.97859106642725
C        -2.27750237214734    2.26588936055235   13.86880214574423
H        -3.25496382556097    1.81104931844319   14.00472858993482
H        -1.80274773310819    1.77347945667173   13.01961573702106
H        -2.41417813284825    3.32969527820624   13.64092812255888
C         2.48417663497092    3.93692138920632   12.71920079531055
C         3.47972162104686    2.79133393835820   12.35974600509407
H         4.50659212665472    3.11098116337100   12.15902506296770
C         2.60064934707311    2.59616711811979   11.11216621241950
C         0.73355596341657    4.28306517403515   10.83573015969505
C         0.09745420727244    5.35710010194138   11.45450717309859
H         0.43291405031342    5.71535091246552   12.41592950566012
C        -0.97951414287563    5.96792779374540   10.84000970962878
H        -1.48231121744826    6.79767321473431   11.30918082877481
C        -1.40638371632839    5.49851152163959    9.61074173907763
C        -0.78335865344671    4.43536220037593    8.97943388945989
H        -1.13986220071375    4.09684180866367    8.01993018102432
C         0.29128568197974    3.82464596817741    9.59514897230830
H         0.79285360701277    2.99489506837935    9.12459334277757
C         4.61962410440445    1.44890013979095   13.93640661085609
C         4.39486697326333    0.32681179317338   14.91086646394324
H         3.70910984897818   -0.40182334929342   14.48837631005703
H         3.95215955530702    0.73295542227659   15.81934540997853
H         5.34479099266423   -0.13635896143068   15.16022196483440
C         0.95883194580742    6.42974382879790   14.68837571560138
C         0.64085644453055    5.86625557792888   16.90456199701453
C        -1.18378167719720    5.51988033437489   15.28122236736881
H         0.05651519363933    2.31891891013343   17.29344297117521
H         2.93760980551979    4.93286000858345   12.76513914727656

