59
CSD_code = OCUWIS | q = 0 | S = 0 | Stoichiometry = C28H26IMoO2P | MND = 9
Mo        0.08767053170119    0.68157376983882    3.23295511655246
I         2.88269950975560    4.88402247828153   -0.56247598999286
P        -1.39483931757932    0.71983758988987    5.09243182280267
O        -2.62081542736121    0.22694404507553    1.86123746527638
O        -0.15684011516634    3.65026674307575    4.00131466442505
C         0.16591362956886    1.85209554662908    1.26165137195307
H         0.32082379441771    1.10089202006228    0.47930097114745
H        -0.77630787752399    2.35142966236569    1.01483776292381
C         1.27252519975226    2.89504299621967    1.14761196401379
H         2.24575411342101    2.47318316039543    1.40969900476808
H         1.08129209495461    3.73280117328325    1.82089321428255
C         1.31960030779212    3.41120636607879   -0.27911363594002
H         0.39031088207422    3.90276113388428   -0.55580173972832
H         1.53158988633812    2.61403475259234   -0.98818848630126
C        -1.63224202867385    0.44654590446758    2.40730912625210
C        -0.10345036322611    2.53824176235271    3.70304627003944
C         0.83485263832960   -1.43225183190175    3.69315400128648
H         0.27910102679487   -2.28826610086693    4.05468040535661
C         1.57566756456659   -0.52959602683334    4.51004571186368
H         1.66105941699751   -0.59873547322246    5.58890548992561
C         2.36307277639937    0.27683401233107    3.66786576172993
H         3.12991510424755    0.97290089291866    3.98341377266540
C         2.10289852054298   -0.10943199733815    2.33766855651993
H         2.66393887753011    0.20993871776535    1.46820394690100
C         1.16258018708458   -1.16842781172222    2.35296581541438
H         0.88011934223963   -1.76973263114698    1.49799128691473
C        -0.92165941478568    1.67807753409819    6.57284910594451
C        -1.84091360109572    1.95640164168585    7.58184918750142
H        -2.86549141390775    1.62647751860896    7.48308757881291
C        -1.44502880976530    2.65821181456934    8.70518565613373
H        -2.16314672401463    2.87437270871225    9.48261079071367
C        -0.13323025614694    3.08639284514946    8.83425705692015
H         0.17115276225877    3.63742451528473    9.71162178571067
C         0.78510451960146    2.81128774618042    7.83503480085693
H         1.80724719219273    3.14676427191927    7.93136028197923
C         0.39234293981175    2.11050101255100    6.70871971144722
H         1.10466485054391    1.90220344825003    5.92016231805366
C        -1.61939104716862   -0.94379084927824    5.78241783316516
C        -1.04686310647886   -1.35130673749225    6.98107652966843
H        -0.50916318486603   -0.63915948396690    7.59285849904009
C        -1.17087000907029   -2.66848316879521    7.39170353126450
H        -0.72446243300864   -2.98301096208300    8.32380893572342
C        -1.86194413195459   -3.58016823677290    6.61227175457447
H        -1.95622798926214   -4.60587865782908    6.93650917753809
C        -2.42965773909687   -3.17829241462688    5.41128370781868
H        -2.96583011519745   -3.89027197403569    4.80103214148205
C        -2.30156329199526   -1.86864939275010    4.99272284070351
H        -2.72829670080781   -1.54420418092072    4.05159881224662
C        -3.11626546043666    1.27158227289334    4.86478403333970
C        -3.36529133071356    2.37136366248857    4.04792434003822
H        -2.54578521087504    2.85726173631728    3.53404034705586
C        -4.65668480336215    2.83603044051065    3.87770206619231
H        -4.83947217627956    3.68714219248974    3.23888111942639
C        -5.71301452869787    2.21003574553677    4.51892248198066
H        -6.72148677674405    2.56983091187849    4.37971729294951
C        -5.47248460596452    1.11910298030857    5.33657230880597
H        -6.29229097096866    0.62652652660550    5.83894833010019
C        -4.18226273367966    0.65219544461081    5.51426145087674
H        -4.00702397304251   -0.20378176656880    6.15182054088853

