33
CSD_code = OCUWOY | q = 0 | S = 0 | Stoichiometry = C13H15IO3W | MND = 9
W         0.58073718615660    8.77986876934118   11.49819113969562
I         0.50895512606688   16.87617125329642   15.31048825806601
O         0.56426936653770    7.15375815785945   14.16753940461580
O         3.02679644683685    9.51198692201415   13.28732299041960
O        -1.91065965974799    9.50345313144337   13.22850041162909
C         1.43638012638328    7.23532944370637    9.99625904131693
H         2.16757635948711    6.46022624792402   10.18531690082112
C         1.71050987271995    8.52479453432202    9.47804826717726
H         2.68663378247098    8.89676091405182    9.19147366603405
C         0.47220695384763    9.14364177053357    9.17497350632685
H         0.34772300253500   10.07032364877717    8.62880369818691
C        -0.56768579185965    8.24899554448940    9.52435282408461
H        -1.61634865885239    8.37875664643863    9.28765865739690
C         0.02684921036244    7.06587030975061   10.02322253696763
H        -0.49239981473938    6.14403889277338   10.24984184773209
C         2.10329693147899    9.29822850177216   12.63735865371806
C         0.56956537255586    7.71854237222587   13.16254778377676
C        -0.97723573064641    9.27818810816312   12.59729082040749
C         0.52879754250535   11.07826444208164   11.50138165381173
H         1.39353867180914   11.38403871868517   10.90107876961096
H        -0.37426892068676   11.36378221894316   10.94978304302048
C         0.55456857946172   11.87792804314615   12.79679766780906
H        -0.29778031737941   11.61572575842954   13.42692879412129
H         1.46355082189906   11.66268590570159   13.36202664403927
C         0.50374066318092   13.38596890222918   12.51645428858543
H        -0.40639680301911   13.61970976794096   11.95849939777684
H         1.35689239123894   13.66735626797098   11.89411466181720
C         0.52892307975471   14.19788930460575   13.81124616914221
H        -0.32240523877720   13.91246895456927   14.43324385920033
H         1.44009224178461   13.96470671352246   14.36650297633403
C         0.47354193176779   15.68048555445183   13.50829627243183
H        -0.44353650581879   15.94766111793732   12.98851600778129
H         1.32987178068517   15.99989316090266   12.91903938614486

