49
CSD_code = OCUYAN | q = 0 | S = 0 | Stoichiometry = C25H22AuP | MND = 2
Au       -1.47134650416105   16.39950044388391    5.97012518580131
P         0.38465531176838   15.34298734144825    5.23558797238461
C         1.46507197902280   14.67706433348344    6.53128042288152
C         1.85397218320887   15.57032170706551    7.52865630520624
C         2.64574022402666   15.14266024308322    8.57310589079932
C         3.05339712389189   13.81344377078710    8.65681695478617
C         3.92319458678885   13.36148875947195    9.78824447184291
C         2.64591102209638   12.92696426767879    7.66804622931878
C         1.85600395128732   13.34688307888722    6.61292135581822
C         1.51184632395337   16.36080583758430    4.24235575124367
C         0.92001233737859   17.22524246018065    3.32580072241799
C         1.70307360028597   18.02864835568041    2.52116696667361
C         3.08963711070116   17.99453985001110    2.62112713073997
C         3.94408937170528   18.88091554076243    1.76961797406860
C         3.67200008211074   17.13560365457917    3.54781470716366
C         2.89760498801249   16.32375794647887    4.35383372890432
C         0.08394992783352   13.91020351310670    4.16346112800620
C        -1.05591040489299   13.15397078155630    4.42253791511252
C        -1.34164902585937   12.04329201044405    3.65435208359821
C        -0.50492551694244   11.67065956047154    2.60693673134622
C        -0.81001769854866   10.45570473563269    1.78743742162254
C         0.62531932721042   12.43859884574241    2.34887147001193
C         0.92310769922368   13.54929753480044    3.11511414651079
C        -3.07882658028165   17.31437485319790    6.57896522288749
C        -4.08512983323316   17.88238841217638    6.95078083989942
C        -5.21396569828349   18.51993974103961    7.36856915018903
C        -6.21634023827455   19.07806994438361    7.73840876579613
H         1.52753503043378   16.60182193475552    7.47148603779692
H         2.94820938382521   15.84115754334679    9.34020416272913
H         4.94896838815475   13.69361944965395    9.62527990273739
H         3.92479696188733   12.27761557116254    9.87110364030412
H         3.58175506026789   13.78789179768296   10.72922388800818
H         2.94842592974460   11.89071147065340    7.72415489207606
H         1.54512325840591   12.64210931298371    5.85402584202578
H        -0.16022842010043   17.26150714892995    3.25326426522969
H         1.23461420411675   18.69419669300746    1.81040774795746
H         3.39901838140825   19.22352745606640    0.89370436256052
H         4.84245068370673   18.35861982713647    1.44712394505808
H         4.25405730527063   19.75647458034911    2.34089625282308
H         4.74889284159009   17.10276925131699    3.63674508779557
H         3.36627400194049   15.66075831279261    5.06835995897106
H        -1.71613153223914   13.44943922317863    5.22884458635968
H        -2.22734527071079   11.46030342347479    3.86243722980827
H        -0.43139295401441    9.56497706822661    2.29032149662623
H        -0.34007258569197   10.51681651432402    0.80893434575935
H        -1.88330413615499   10.33532344383862    1.65917851179250
H         1.28067098916001   12.16336637011125    1.53444292733469
H         1.80426324725045   14.13811050536106    2.90007012188299
H        -7.08915641826819   19.56555557803775    8.05415414933982

