90
CSD_code = OCUYEQ | q = 1 | S = 0 | Stoichiometry = C45H41NOPPd(1+) | MND = 5
Pd        0.30705193626929   13.20799511733015    4.90111646791060
P        -0.29397507809604   11.70063353820021    3.30966723433011
O        -1.47630915748637   15.77478580080824    1.79474352986370
N        -0.26421515929454   14.77047482795992    3.49760397976753
C         0.72358058281935   15.85079705619728    3.48999479765371
C         0.08955970973217   17.12573837928366    3.00532910042080
C         0.48430226808338   18.38951095122866    3.42040138504533
C        -0.12663439413792   19.51549751481451    2.89822437777285
C        -1.14734697240219   19.39232152447440    1.96817079155854
C        -1.58914404739179   18.13999351210698    1.58359952485313
C        -0.96829646795056   17.02029232241422    2.11611066668428
C        -1.20536420009291   14.76271677817592    2.63286988995063
C        -2.16301586485416   13.65489037256835    2.41725383926448
C        -3.42655440175390   14.00652588497017    1.93536416641536
C        -4.35995874863497   13.04580169540365    1.59802182041678
C        -4.03721634582975   11.70364309028511    1.71099653993145
C        -2.79665048290445   11.33934217790077    2.19999861030931
C        -1.85490213752034   12.29598047559824    2.57462743604646
C        -0.88206077147885   10.21539648542109    4.17514414635601
C        -1.76989237933089   10.46984177137154    5.22218886097321
C        -2.26722409718890    9.42660374129967    5.97620472453268
C        -1.86375364426191    8.12634644876450    5.70139549736632
C        -0.96924688747046    7.87536394482608    4.67526764769091
C        -0.47453190179127    8.91711630069306    3.90644456646471
C         0.70831687527204   11.11341368693493    1.92060326009365
C         0.27515710274090   11.12700657686744    0.59969085949833
C         1.11720256598597   10.66728954623913   -0.39822069799982
C         2.38319359941895   10.19956468742910   -0.08488390903045
C         2.81954176516694   10.19482327669090    1.23164702960770
C         1.98853143939383   10.65755047049483    2.23364168675363
C         1.98912828942533   15.43415216684252    2.66032718731960
C         2.89983431632079   16.64981958364277    2.47514850078757
C         1.60163440324412   14.87585860372096    1.29029425315264
C         2.76499414940803   14.37066797521188    3.44826927742367
C         0.88933501669307   12.00626746699806    6.52753380518977
C         1.25289588428726   13.35209287723086    6.81119711011844
C         0.24234640064192   14.31118521613660    6.78827439172009
C         0.43001969442331   15.75472810381947    6.87361337444587
C         1.67387704062478   16.35653281305860    7.09508362571517
C         1.79050428771864   17.73264342731321    7.13846875815365
C         0.67760968475310   18.53782834373308    6.95257903699677
C        -0.56126658938211   17.95750052798921    6.72866512114746
C        -0.68533431245832   16.58341761894305    6.69619423757245
C         1.87189514418712   10.95097859319797    6.27646440002060
C         1.55436552109544    9.62293930211842    6.57135794154531
C         2.45290942778980    8.60698495379328    6.30851569814844
C         3.68582161221044    8.89423238828640    5.74620933118506
C         4.01449637804061   10.20707778187910    5.44534383909553
C         3.11819552690099   11.22627418097061    5.70295446533943
H         1.06269491559100   16.00276726439216    4.52480655826583
H         1.27541862636114   18.48793672036540    4.14685828555588
H         0.19771331305047   20.49428306657255    3.21438745305064
H        -1.61362527101557   20.27239863826985    1.55479542250179
H        -2.40290212427817   18.01476992411750    0.88770729604324
H        -3.67647328136935   15.05071662804243    1.83005707502794
H        -5.33170486219413   13.34489636106017    1.23781946137456
H        -4.74893669074349   10.94404165876402    1.42710461979192
H        -2.54559386714970   10.29223438176666    2.29816930957814
H        -2.06650498453189   11.50249824569692    5.42320070914383
H        -2.96171079913886    9.61786620733485    6.78078498955008
H        -2.24645389595250    7.31005020226289    6.29448058537908
H        -0.65436162521899    6.86388306269483    4.46910609216538
H         0.22152477268823    8.72164026505042    3.10328164957431
H        -0.71148229370011   11.49397084069870    0.35388107442630
H         0.78260665169551   10.67426053703190   -1.42437298722859
H         3.03268934785776    9.84150166299345   -0.86867618966828
H         3.80723350356793    9.83368372062370    1.47480509183358
H         2.31550295206023   10.66700481457167    3.26714647038861
H         2.42419827538554   17.41461662592151    1.86755234595180
H         3.16752842313794   17.08395131980669    3.43531657338446
H         3.81498083367922   16.34299889475528    1.97501561200616
H         1.01816770363737   13.95850949366226    1.38633681635903
H         1.02798036637756   15.60261318626403    0.71917492372208
H         2.49888610513045   14.63919807755566    0.72403878088808
H         3.05611886586773   14.76715310041007    4.42439748585265
H         2.16611516147605   13.44882112431763    3.56940785575030
H         3.67080042345053   14.10299297331074    2.90841691741252
H        -0.05275527983008   11.64830206589811    6.95962555703110
H         2.29954952633562   13.63794402220387    6.85948898350336
H        -0.78739802082370   13.97585919131442    6.99545034476958
H         2.55287454606462   15.74905826528990    7.25225607914057
H         2.75592525216668   18.18012439934357    7.32118412340009
H         0.77410195637811   19.61182115836741    6.98798741121047
H        -1.43132101320785   18.57965698155862    6.58485092203864
H        -1.65385451641353   16.13418490065191    6.51939512668558
H         0.59623615373307    9.39175746757406    7.01407580841147
H         2.19107579690389    7.58714977809981    6.54536595107186
H         4.38772991692744    8.10061423306777    5.54250583265924
H         4.97303743844515   10.43590514067475    5.00383162986961
H         3.38218111661311   12.24432351619704    5.44206976659353

