49
CSD_code = ODABED | q = 0 | S = 0 | Stoichiometry = C18H24Br2N4Pd | MND = 4
Pd        1.93789195847683    4.23351785351582    4.77605593521327
Br        3.03022817977763    4.58381661500857    2.61641554274115
Br        0.76867061282336    3.76587589562044    6.85597819887150
C         2.03618857668550    2.31737084320620    4.47286500536240
N         3.06353685466582    1.54885927925383    4.86473614856413
N         1.88253156441615    6.24572692708573    5.17364899353935
C         0.84147104374147    8.37935548657053    4.95297437987282
H         0.09445590471108    8.98993227349656    4.47074305469200
N         1.12317322127709    1.55155803723505    3.85791544141868
C         0.96987843978125    7.03125199662845    4.58794547044719
N         0.15464492632424    6.43881003206557    3.67445581041890
H         0.50322570797677    5.57318961168073    3.25494640368209
H        -0.40962859299910    7.02742433582704    3.08572768476147
C        -0.12264274830624    2.10146588845577    3.34492300768030
H        -0.10188266974237    3.17994600269509    3.62053706817431
C         2.68410496173421    6.74462993889960    6.11154511833651
H         3.39859505677033    6.04999204424643    6.55226386723276
C        -0.17116167309256    1.98987689425246    1.82356847228903
H         0.70201439335878    2.47232457120370    1.38777132250337
H        -1.06439984847632    2.48107759125056    1.44724665194762
H        -0.18704174373518    0.95075236626936    1.50680611015922
C         1.03265546022896   -0.92646992833916    3.32502446073075
H         0.08387765302075   -0.94393037766390    2.81455455093997
C         4.20475241243946    2.09758204551792    5.58480424287721
H         4.00361613434023    3.19290332080106    5.67048013049046
C         4.27468309608356    1.51680643457489    6.99425948932591
H         3.33825774717895    1.70334305063053    7.51719059972429
H         5.08049496408973    1.99198202803854    7.54722331299116
H         4.45343354950575    0.44536535096988    6.97096815261084
C         2.81857684313848    0.24275035125615    4.49304124198675
C         3.53782510322026   -0.93312667896020    4.64753897888323
H         4.49242839898923   -0.95653708250908    5.14681733028694
C         2.62129581073889    8.05976061835406    6.51736299358068
H         3.28708411704106    8.42812065591087    7.27976124502820
C         1.56820470537565    0.24504402099207    3.83915778067414
C         5.49032557611381    1.91253922308624    4.78398128704499
H         5.74430090751622    0.86157218442745    4.67893480256782
H         6.31014657286710    2.41891421852258    5.28646955189726
H         5.37505600821819    2.34380484016248    3.79128062971237
C         2.98991376588271   -2.09325703665132    4.13582595623623
H         3.52821419828433   -3.02245588558839    4.24232089020396
C        -1.32252638427174    1.46695038114105    4.04142180301166
H        -1.40123066552331    0.40801736686101    3.81371706328356
H        -2.23447081179721    1.96079610838074    3.71728300723881
H        -1.22936570264684    1.58760131011128    5.11878104975280
C         1.67207885852895    8.88857964022334    5.92392382943047
H         1.58999720163111    9.92282194752148    6.22141336821945
C         1.76057592627365   -2.08961979140274    3.48417454041855
H         1.36704442747468   -3.01571280097352    3.09431802286892

