72
CSD_code = ODABUS | q = 1 | S = 0 | Stoichiometry = C34H34FeNP2(1+) | MND = 8
Fe        6.97830620754832    4.80763428948758    4.79663287899429
P         8.82060507806088    4.35281324721550    3.77230460161143
P         7.28337699285158    2.98096540819983    5.93087914387430
C        11.44515960740110    7.50215795696774    3.68644003829419
H        12.23641711578506    7.91569028391325    4.29429873534182
N         7.96935512285401    5.83142502263276    5.88755161131972
C         7.74629551494857    2.40263862785093    2.15745428678549
H         6.95135499823782    2.41375620560730    2.89156487072303
C         9.81057924638441    5.78752826649934    3.28885967581008
C         5.14559127915592    4.23430680125812    3.86409956943420
H         4.75998345867737    3.25659931271279    3.62788570938220
C         7.70907472490655    1.53106161919825    1.08479483486336
H         6.88477552913494    0.84207832279110    0.97652710574394
C         9.82884733393978    3.30993463358507    1.35640102982916
H        10.65033319273934    4.00415547642586    1.46083072751468
C         5.85537549762408    5.08436033201568    2.99523522485532
H         6.14931324865621    4.85180274029787    1.98551892172823
C         4.08440277165282   -0.30047898145641    5.54925994705455
H         3.30863605999900   -1.04549116113327    5.46443060395117
C         6.22898929982362    0.55250309377514    4.87937369838404
H         7.10992416095590    0.45148428625681    4.26316788800380
C         8.80615804223639    3.29259882136753    2.30103513943804
C         6.09313851366199    1.61284119853642    5.76905345151435
C         3.93752140093283    0.75917089736379    6.43092299098151
H         3.04703594846818    0.84144411923557    7.03537007154742
C        11.14663720173364    2.82621274004971    4.39939288352039
H        11.74806728889272    3.62926027732368    3.97752341911055
H        10.94280357900039    2.10203874736598    3.61255988012317
H        11.73086906971531    2.33282727226833    5.17409056214478
C         6.79401589838614    4.30548713048516    8.31374710972972
H         6.41222037193520    5.08183659287622    7.66483031682399
C         9.84737037087952    3.36835077291824    4.98192710874722
H        10.05914201205760    4.05780025630583    5.81148963987213
C         4.93262974998116    1.71083220558538    6.53699796904358
H         4.82492871122030    2.53462625273460    7.22964060015827
C         9.42130496618095    6.44608167452626    2.12280487264047
H         8.62586441719361    6.02594609317180    1.52136719630135
C         5.37470059210897    6.25967269533508    4.89741514269091
H         5.26882322830521    7.07247618085354    5.59593223045430
C         6.75662720297025    4.44727766232102    9.68940753259459
H         6.34725618815790    5.34451187287758   10.12905386737867
C         7.31948525353071    3.15100875310862    7.74396945477455
C         5.22980217337223   -0.40055940443792    4.77814491776996
H         5.34834549407491   -1.22537449576013    4.09165227949611
C         7.23650399077359    3.43341999417928   10.50234812250469
H         7.20922560756682    3.54314938051383   11.57552787492718
C         8.93643394342628    2.25382508820299    5.50211400891013
H         9.38130144930819    1.75549556833276    6.36750347477670
H         8.80019769112756    1.51183749320129    4.71060882323148
C        11.06874820133492    8.13997357904263    2.51588351117665
H        11.56516681183172    9.04901829269017    2.21344962343651
C         8.72832221646167    1.55060450739491    0.14569018901169
H         8.69887257865469    0.87576622135494   -0.69576827653289
C         4.84567063254801    4.96785198535805    5.04811596434904
H         4.21518742478387    4.62718792780202    5.85094253215533
C        10.81500931563507    6.33427232867256    4.08064447970628
H        11.11357279989239    5.84703408034734    4.99719683608362
C         8.50279290887179    6.65234804199055    6.49865751160232
C         7.73848326961402    2.27047365282104    9.93901417434283
H         8.09470623950366    1.47352087229630   10.57394211004355
C         9.78321346567278    2.43969595578670    0.28203881094243
H        10.57435069533369    2.45462066140093   -0.45204064597086
C         7.77488799316693    2.12294438137388    8.56477037907658
H         8.13971870247933    1.20216782480612    8.13088763580364
C        10.05220429598163    7.61182472320758    1.73453131770166
H         9.75404962010148    8.11126549128968    0.82529048302966
C         9.17675882603642    7.64663553915676    7.27382950245933
H         8.45107770755060    8.35270320763256    7.67693696359052
H         9.88717193631405    8.18633042755882    6.64740821465174
H         9.70820021038066    7.17569974193357    8.10099265630669
C         6.03506898943368    6.32984201979017    3.64696735917314
H         6.46425835988675    7.21499691134685    3.21057662315830

