39
CSD_code = ODABAY | q = 0 | S = 0 | Stoichiometry = C18H15Cl2FeN3 | MND = 4
Fe        3.50188012976868    2.20614296911680    3.70517764573003
N         3.83566914906441    0.70277808070617    4.76683945466590
Cl        5.44555875839488    2.43789377231669    2.97460094873138
N         2.72717355923785    1.16713258791806    2.35412876247940
Cl        1.80209594314815    2.74254124768207    4.83864449955450
N         3.54956576190481   -1.29263003242773    5.71530983057433
C         3.17120783785892   -1.06855420814031    3.23878582577621
C         3.49184456947677   -0.56069611392630    4.55036263820405
C         2.34455185298614   -0.77775494737753    0.95809246210304
C         3.32568754055686   -2.42596377759772    2.96277300162137
H         3.76837591266667   -3.07158838384711    3.70106930682588
C         2.45171655590243   -2.16693986504726    0.75753579413586
H         2.13954988262711   -2.57400160640202   -0.19200060693055
C         4.64069188373639    1.90513364195339    6.81341750199646
H         4.78688868545502    2.86118144655860    6.32704027822985
C         3.99429617738617   -0.44362429371213    6.69891892948734
C         4.89642272397156    1.71208500524999    8.15407715657677
H         5.25345933245172    2.53517443062222    8.75360519800747
C         2.25048407957659    1.93669063136411    1.36046726188800
C         1.85366540983371    0.05729910936681   -0.06295295388487
H         1.53884322286324   -0.37675696453898   -0.99871443118003
C         4.18204775421696    0.81052786554271    6.08851231749657
C         2.97311150380087   -2.97158732848069    1.73488234826157
H         3.10787320469368   -4.02876799580129    1.56407726422791
C         2.22336026318742    3.42229702887655    1.58420272394516
H         1.48748019780030    3.67235326709137    2.35273544017424
H         1.95509535763537    3.93501387384708    0.66423295427369
H         3.20767558532120    3.79459103958062    1.90635534565534
C         2.74618012660787   -0.19025431627527    2.19440011319085
C         1.79549804304261    1.40952342084902    0.15516239183403
H         1.41931061542101    2.07930935653477   -0.60216752985458
C         4.25398253334610   -0.62795629293058    8.05034787600253
H         4.12105226244501   -1.58527185191115    8.53005295616186
C         4.70476647014558    0.46737203670030    8.75948216823174
H         4.91919719861500    0.36008099913786    9.81201981186214
C         2.99560790571096   -2.58891149510387    6.00059898545250
H         2.20855940203211   -2.82659110806179    5.28717412663147
H         2.56237389690901   -2.56538669457643    7.00141203441710
H         3.76229871019066   -3.36798453488465    5.97504016743417

