42
CSD_code = ODABEC | q = 0 | S = 0 | Stoichiometry = C19H17Cl2FeN3 | MND = 4
Fe        9.37297060195291   -0.15768039564320   10.19162355603759
N         8.81322199531236    0.03718876419468    8.44087457181847
Cl        7.47139502591140    0.17066782300702   11.02300761055781
N         9.34422855571643   -2.03108714512619   10.08307580825552
Cl       11.38504700121567    0.25274672069341    9.74755016318183
C        10.17176259098941   -1.71841077792036   12.38082575335504
H         9.68907652165481   -2.05536224457267   13.30157120304822
H         9.88261685798144   -0.66046593204331   12.23394249968334
C         8.20086264707694    1.05188482193542    6.51745077214978
C         8.97553378597216   -2.83752599211978    9.04084411877488
N         8.14611605617143   -0.30552674831876    6.35608035864348
C         8.97609267937981   -4.25687779867031    9.18681248503948
C         8.57838152292183   -2.30579265671610    7.77446264884758
C         7.93182254564880    2.11678015124585    5.67070929278180
H         7.60674763839843    1.95933187865509    4.65395757363568
C         9.70752694824778   -2.59635610893182   11.24488192622535
C         8.22820311483793   -3.17847748173672    6.74304057106655
H         7.93156173720415   -2.78402047555265    5.78386549231393
C         8.62544259004329    1.25973306559518    7.84501135616244
C         9.70728348022381   -3.97546820323675   11.44601595511796
H         9.99188597424231   -4.36187636532312   12.41215091594412
C         8.78792316184858    2.54406442334328    8.35259667766943
H         9.11307437281326    2.69331194929759    9.37452935699353
C         8.52186711625509   -0.89054485941375    7.54062144856158
C         9.34470822302222   -4.81385132837728   10.42611973253793
H         9.33418486210232   -5.88506077228552   10.55141587429336
C        12.16310315546693   -0.91806973344800   13.70576925101167
H        13.24062835447002   -0.99631622764840   13.82498435019399
H        11.68992475285526   -1.22488899475070   14.63693526338360
H        11.91681797320287    0.12482492835951   13.51933203048684
C         8.51801270212660    3.59734684606645    7.50421702857455
H         8.63115015931117    4.60999984855430    7.85934081402717
C         8.24461222013340   -4.55581300543110    6.90663554713366
H         7.96656150520108   -5.19553860572230    6.08308276088452
C        11.69584634514021   -1.78711979515770   12.54583330934320
H        11.99385081416912   -2.82387975785295   12.71581375214304
H        12.16637665932534   -1.44436570322403   11.62308698120217
C         8.09821203611449    3.38613969258695    6.18833944323642
H         7.89819844858201    4.24096788406575    5.56038432011602
C         8.60997964828016   -5.09064204945742    8.11373920288670
H         8.62560541218021   -6.15886195507547    8.26616138497221
H         7.87438220632509   -0.78680768385701    5.51730683771740

