49
CSD_code = ODABON | q = 0 | S = 0 | Stoichiometry = C18H24Br2N4Pd | MND = 4
Pd        5.12841322960835    6.04229917646557    1.53760247310648
Br        3.77651953798211    4.96771014624446    3.26000666532105
Br        6.38078984689697    7.15485012143253   -0.22033768672999
N         6.75414449141109    5.93503462165013    2.72079028698487
N         2.64377633540102    7.11627101135987    0.40883647400946
N         3.17663503485702    5.18988069659610   -0.47590435105120
C         3.54730892862502    6.12479241912378    0.41173498247438
C         1.63337435568237    8.34795872811121    2.27256006701382
H         0.68090794722126    8.49556063045532    1.77134175921596
H         1.79505517640518    9.17280123513241    2.96130733837382
H         1.58769238785128    7.42269975927915    2.84401853660985
C         7.70405844389252    5.04066849772384    2.46528908826781
H         7.59253609062683    4.45008587448124    1.55812998073146
C         7.88607208718891    6.59571002586177    4.71900230674991
C         0.04926257224155    5.66988361727286   -2.42306212980037
H        -0.59458910072725    5.23742968088817   -3.17341708388869
C         6.83293173154345    6.69347133670875    3.80363312859184
H         6.02394816725860    7.40487803103332    3.96843024696597
C         1.19326875690438    4.99457483704072   -2.04437473858051
H         1.43969634051762    4.04677125338831   -2.49394991471979
C         1.99691960807231    5.57881796433431   -1.07665510344097
C         0.50015073317826    7.48886260345101   -0.89413282356511
N         7.95877885930511    7.43226147268086    5.79525156495466
H         8.59385359279992    7.18911469413184    6.53618711913782
H         7.12247807820981    7.91758153602516    6.07209697853665
C         8.78783514979091    4.87428831186053    3.31252688114268
H         9.54231508981402    4.13877451715367    3.08318808424163
C         1.65225717044430    6.82213832549892   -0.50448514101264
C         2.78234695755595    8.28135623819390    1.27060829661561
H         3.73029150011353    8.11746443347013    1.83645003923621
C         4.50781484825193    3.96261939917702   -2.12757041009879
H         3.70077633631332    3.89686876233659   -2.85199301798286
H         5.16190193166024    3.10456640921516   -2.25660998134375
H         5.08054710896160    4.86722802689051   -2.32340393277717
C         3.96956414386255    3.98955401481606   -0.70006947384115
H         4.83621370470691    4.07460242166884   -0.00181600427548
C        -0.29147438103290    6.89468735423428   -1.85769868585263
H        -1.19416505399923    7.39142053932691   -2.17865393462069
C         3.17684169630253    2.74138583114740   -0.32327571844902
H         2.82161815413379    2.82393163679166    0.70225274094443
H         3.81603264300387    1.86573412418247   -0.39758545493091
H         2.32128653771637    2.60326907828927   -0.97836406781284
C         2.94022521996705    9.54986040632709    0.43746418868661
H         3.77951325592870    9.44049738203871   -0.24677964740593
H         3.13597951840767   10.39552895328664    1.09117785085900
H         2.04387562161306    9.75745167788460   -0.14017177352702
C         8.88385949114521    5.65190465701772    4.44878086797974
H         9.71449959749190    5.53984637804826    5.12989947134582
H         0.21876052489662    8.43775115027951   -0.46795634239574

