82
CSD_code = ODACIH | q = 1 | S = 0 | Stoichiometry = C35H40FeO3P3(1+) | MND = 8
Fe        6.02515542667166   15.49767800997432   20.18667221860671
P         7.59395268109732   16.49556074056508   21.30583603754395
P         5.58357190691580   17.42962834867305   19.32558106740198
P         7.47198362551374   14.92385186501455   18.71093803769146
O         8.56115264073197   16.07144818221590   18.46407935437501
O         8.22488769416917   13.65569974011416   19.37514298733317
O         7.32109595172358   14.45650646111241   17.16681948195676
C         8.25360586960566   16.91607216445640   24.02472845904037
H         9.26229935551792   16.62021043149251   23.77706082508469
C         3.33100799409458   18.47772712052329   20.56433586661512
H         3.90448744206107   18.37592531472602   21.47395435874786
C         9.35674831575013   13.00327837352001   18.80289716793386
H         9.28759910659351   11.94855734904287   19.06962856137020
H        10.27120261468880   13.42217248047577   19.22452699988006
H         9.37497697921329   13.10481128895290   17.71636477712353
C         5.96916158810128   17.29309237701512   23.39168606616669
H         5.20477277592445   17.26084863435307   22.62971293073210
C         2.04364913110918   18.97438144950836   20.63130740662690
H         1.62241834802769   19.24948865018232   21.58658773098126
C         9.53478982770681   16.15382380902416   17.41985443634437
H         9.69107752759752   17.21461378783000   17.22405849842432
H         9.17923342904622   15.67281947445631   16.51120341328178
H        10.47117252482153   15.69792114125037   17.74428357854737
C         6.02900359752153   17.53205014216334   17.56972445487221
C         5.66631991153352   17.68331364644313   24.68215099460374
H         4.65983222038518   17.98021045137053   24.93681127449944
C         8.64853853875909   19.13513120565039   21.53851031405633
H         9.56040085115985   18.67496936349418   21.91375406884560
H         8.02436766024262   19.39349261087875   22.39172291533119
H         8.91668125264336   20.05560123805567   21.02257519391132
C         3.89511703784896   18.12247029791499   19.34039162402094
C         5.43766539038541   16.55543862233266   16.76936124499763
H         4.77698746955083   15.83669487329689   17.24030263841940
C        10.39454601058972   16.11334167283152   20.88465974488908
H        10.43532361679136   17.04384997622493   20.33944220118283
C         7.91140892748628   18.19556486878191   20.58952389241834
H         8.50851211148864   18.02959557729787   19.68714333107262
C         1.29477944632090   19.11804903646609   19.47438770060467
H         0.28817936608410   19.50290545729349   19.52516272962497
C        11.51159220391893   14.15812589398428   21.72910245583376
H        12.41297200787255   13.57554154855403   21.84389551236665
C         6.65828297050016   17.68529192087629   25.64992096042475
H         6.42625040530228   17.98336375940313   26.66059262474422
C         9.19998189809600   15.66847150794103   21.43561159327703
C         6.58041076493859   13.32822290754900   16.74102908910830
H         6.93898271424853   13.08300974648173   15.74067605398042
H         5.51672447154190   13.56407750062747   16.68880980002036
H         6.74143765556356   12.47291024514297   17.40007145786485
C         1.84615293915804   18.76906762652891   18.25375334699881
H         1.27115739441717   18.88527472623721   17.34761535836943
C         4.22086844266466   15.25552815966597   21.24556999871454
H         3.54788419816172   15.96351755431459   21.69538709382114
C         6.88981133839172   18.45562100254370   16.99298016505487
H         7.36356735321530   19.21902333763445   17.59166722282547
C         6.54616253919994   18.74894087943875   20.18390239686719
H         6.62515420271203   19.64618909981619   19.56298350121396
H         5.98656847112439   19.02263253150043   21.08376116556157
C         3.13616913906786   18.27196481292474   18.18351969780450
H         3.55266654403883   18.01328824903299   17.22189472407652
C         7.94687541249949   17.29978056596979   25.31862539783616
H         8.71990426625855   17.29956648221536   26.07193012051808
C         7.26090310134287   16.90796506875240   23.04954490500917
C         5.23519630549395   14.52615782903840   21.90384546030190
H         5.52063206111906   14.63771337300752   22.93569310971961
C         4.07947018930992   14.72577960763359   19.93573626086100
H         3.31074100914807   15.00138330441881   19.23382362640174
C         9.16942969314446   14.45596127988969   22.12373599066751
H         8.22965277840577   14.11972853386938   22.54110710422833
C        10.31816201481656   13.70527259139430   22.27291626993868
H        10.29008106373322   12.76981077932916   22.81088205434149
C         7.14905622858936   18.40009442208182   15.63320304206133
H         7.82275179498088   19.11711098852983   15.18806669479723
C         5.68149430403282   16.51465910803219   15.41107148267392
H         5.20646037011944   15.76663628678731   14.79392952461945
C         6.54473712607696   17.43838459828159   14.84197366562589
H         6.74544868032965   17.40773605060042   13.78205649558767
C         5.74709814957109   13.57217170923620   21.00345366042936
H         6.46727206492646   12.80661428920595   21.22657232838597
C        11.54599755628185   15.35726687260379   21.03699354948112
H        12.47605400338773   15.70868929505346   20.61459790193894
C         5.01380493821905   13.68483721857519   19.79215937365269
H         5.08511306859557   13.01002050022012   18.95825317684799

