84
CSD_code = ODACAZ | q = 1 | S = 0 | Stoichiometry = C37H40FeO3P3(1+) | MND = 8
Fe       -5.13055853941345   -0.06039474842895   -0.02633520750500
P        -3.54662009127622    1.40677959583686   -0.06854955071051
P        -3.62585458100430   -1.54906999940701   -0.44951491566818
P        -4.96322658429621   -0.17183781621006    2.08260215391570
O        -5.59757752049159    1.13065817796051    2.80530745990734
O        -5.75864028672479   -1.34403391024032    2.86618415705764
O        -3.50023653408932   -0.24251344476060    2.78117148585970
C        -2.80191679862264    3.72512903704552   -1.49320373977477
H        -2.55903278977573    4.16947454312005   -0.53898270261000
C        -4.45744530237552   -3.33136220981339    1.41300895782123
H        -5.39904537027215   -3.17425081894081    0.90339776033364
C        -3.57700050866552    2.64470792195151    1.25205386114573
C        -4.83978144150351    4.47117395770818    2.18707904026702
H        -5.67637024985188    5.15166895055457    2.14001380369213
C        -2.01847662433644   -0.71904613535013   -0.80877074286299
H        -1.17748112850603   -1.40608073114231   -0.67602560207507
H        -2.03647550170099   -0.41822364445094   -1.86150176179790
C        -2.87115775750011    3.67081520160110    3.30333822727098
H        -2.17184406113617    3.73275090528690    4.12493988264972
C        -2.68546301325543    2.71786914128632    2.31464378382862
H        -1.84700231664924    2.04065883522950    2.37671431939804
C        -2.60609152167891    4.44102138478062   -2.66083535966125
H        -2.20861421006483    5.44338406775324   -2.61230277785856
C        -3.78423525455849   -2.70444669559442   -1.84889987338136
C        -2.91621702585226    3.87828629668807   -3.88855502497299
H        -2.76179267528363    4.44261939521741   -4.79512498417982
C        -3.94332138336920    4.54511325255982    3.24296546760987
H        -4.08122392471729    5.28365032050151    4.01814638055929
C        -3.16646776278606   -4.34332758125715    3.15627557924700
H        -3.09907592875041   -5.00115300808011    4.00992848365207
C        -0.70683933167129    1.38788634720762   -0.30298209786252
H        -0.70557773574102    2.32105457665571    0.25669517480853
H        -0.72485429637257    1.62956237701070   -1.36413182558787
H         0.22074324691401    0.85945035522289   -0.08989221247502
C        -4.07668155738344   -4.90215637388800   -2.78185913082428
H        -4.18646599889808   -5.96648882521051   -2.63949425395427
C        -3.43033687512889    2.59276700503044   -3.95167114396863
H        -3.67676744077104    2.15419420168612   -4.90704439923857
C        -4.37637425515608   -4.18233079937538    2.49756537555314
H        -5.25346030276258   -4.71419697207457    2.83473665714561
C        -1.90603412236734    0.52419226408794    0.07297904450876
H        -1.83912630646400    0.20614966548441    1.12088911173834
C        -2.04411348444089   -3.66022752628655    2.71916227024466
H        -1.10293839904671   -3.78542497764592    3.23393824275930
C        -3.31915135354596    2.43414573184966   -1.55153314749973
C        -4.07837128079816   -4.37019863456994   -4.05985972290339
H        -4.19272016148891   -5.01672194390902   -4.91599408620600
C        -3.32723711468306   -2.65140053608103    0.95967319938366
C        -3.78770483350525   -2.17753301163302   -3.13882639108092
H        -3.66813849944319   -1.11356616163424   -3.28396357038767
C        -6.98940805806043    0.90296644658219    0.06471732316528
H        -7.32639091787118    1.67944130466726    0.72757298915378
C        -3.92971597677886   -3.00360681851206   -4.23664671286126
H        -3.92558742074673   -2.58378425027591   -5.23131243059615
C        -5.57220453717411    1.13492467541874    4.23550911326300
H        -6.60712048041967    1.19545984160694    4.58967624782019
H        -5.03768639366448    2.03764954972938    4.55118510764880
C        -4.65830206063431    3.52382359637826    1.20016424970067
H        -5.34950525559142    3.44962487692381    0.37104323133671
C        -6.25036286535036   -0.19461503705673   -1.79910074020046
H        -5.97847487585624   -0.39905627320586   -2.81959412290285
C        -3.93272516924717   -4.07733795809798   -1.67938869373213
H        -3.92657830285514   -4.50682399334814   -0.68890153724722
C        -2.11762652707829   -2.81964924173278    1.62064044678682
H        -1.22995481387105   -2.30006569464409    1.29323825234988
C        -3.63313119946418    1.87789037230394   -2.78642771130328
H        -4.05491749253000    0.88388421541440   -2.81018333237764
C        -3.47525949258861   -0.18609147334534    4.21084504234246
H        -2.90065042286959    0.70079609099565    4.50095955178648
H        -2.95473307237216   -1.08235136909019    4.56656687128524
C        -6.70981302013700   -1.16883978352396   -0.87178815566100
H        -6.78320275539091   -2.22524897805863   -1.06618287729764
C        -5.65801946320869   -1.34250536040870    4.29109107164640
H        -5.15036426360707   -2.26616340382703    4.59329666590216
H        -6.67676338082382   -1.35023287561865    4.69331826100765
C        -4.88871063793850   -0.11798814032579    4.79583465510442
C        -7.16750320304968   -0.49433709834734    0.27146821053893
H        -7.64227148073271   -0.94643019621552    1.12403382131035
C        -6.45098057975132    1.08098376350672   -1.22499373108590
H        -6.27461437278218    2.02362300769852   -1.71489508497264
C        -4.84840226246784   -0.08367513922551    6.31826499422516
H        -4.28751499231946    0.78084211918860    6.66341561945915
H        -4.37315713193635   -0.98123324608814    6.70516927630955
H        -5.85505032955731   -0.02485053279248    6.72344847278641

