77
CSD_code = ODAFAC | q = 0 | S = 0 | Stoichiometry = C27H43N2O2Si2Y | MND = 6
Y        11.55414479224166    1.90277575132195    3.35479036657082
Si        8.99606637470821    0.12627076837723    5.05969791446199
Si       13.12903811241160    3.93878603363002    0.95251990435658
N        13.38101465962671    1.26811249751631    4.85500610124233
N        11.69289708053781    3.65037257467200    5.05643324808871
O        13.03369271587412   -0.46381429500877    2.80572750002420
O         9.63889471570013    3.88991824001917    3.29333670878466
C         9.74896070303530    0.39202233402702    3.35310724814594
H         8.96725411290463    0.71666023072789    2.65402761407457
H        10.10484853345431   -0.57395414870944    2.97323004261386
C        11.98117643800179    2.45677267467240    1.09689557008836
H        12.44255653361786    1.60789015594727    0.57776365017127
H        11.04620089572040    2.65959823585640    0.56003839973675
C         8.58948455139158    4.04361336897767    2.35694794880388
H         7.69825384210892    3.48711549882976    2.66373969472932
H         8.96613343384175    3.63698783434012    1.41915493623655
H         8.33762421060332    5.09977316183868    2.21714342096069
C         9.42222920123409    4.38215106635655    4.56890520137860
C        10.51064028212805    4.26437288807915    5.46075203058220
C        12.97154596397276    5.67330350451537    5.69690725474709
H        12.04295499910889    6.20085905577857    5.49328476839773
H        13.76579558020355    6.11357316212245    5.09636235276612
H        13.23042162655805    5.81491082139831    6.74512610103449
C        12.85943611615151    4.20017345237576    5.36313713742783
C        14.06884069719841    3.50372587277492    5.37055247207391
H        14.94288430080512    4.10206253691801    5.59068063549313
C        14.30176503390367    2.12979388261506    5.24372349195628
C        15.71869178902627    1.68684179612879    5.53765945265747
H        15.92320347654152    1.74066661783507    6.60601804043820
H        16.41754277145959    2.35062910255228    5.03196868150191
H        15.89239822198724    0.66770506480453    5.20087608748334
C        10.32812280468559    4.69222163066124    6.77742067968912
H        11.13984125469440    4.55871258261128    7.47682439075544
C         9.13486536476497    5.24915476847801    7.19604081486895
H         9.02236977469940    5.56889280057950    8.22091660808399
C         8.09293716497482    5.39594222171865    6.30146440567828
H         7.15994106103815    5.83934502473247    6.61298286341668
C         8.23583189947109    4.95609112642593    4.99258368114862
H         7.40301652886253    5.06324239669629    4.31642957426512
C        13.55114276542658   -0.09502336395022    5.08093855711819
C        13.32430342485848   -1.02026765725111    4.03967246785527
C        13.40506807984641   -2.37913054089113    4.28734352085147
H        13.23696677132251   -3.09579335530458    3.49944827218018
C        13.70448156912111   -2.84468279254648    5.56061680298724
H        13.76260955690161   -3.90780824661072    5.73602888179102
C        13.92045548723239   -1.95103173935311    6.59133360438727
H        14.14470088762489   -2.30914063541400    7.58471497726146
C        13.84590254021168   -0.59168153611651    6.35138374475850
H        13.98875168677124    0.11262969673977    7.15727167326446
C        12.91185966974727   -1.35254929079062    1.71299429922017
H        13.83241603780627   -1.92720189124808    1.56766324509242
H        12.73328889741294   -0.72944436780363    0.83762259855922
H        12.06817575179171   -2.03796939176999    1.84312290849434
C        10.29725722078274    0.38923001482543    6.44173737963569
H        11.06921357038991   -0.37482767424611    6.39992982152564
H         9.84490340783754    0.33892364411900    7.42825336557385
H        10.78204249374467    1.36143480109941    6.35242400360523
C         7.55182721799426    1.34332039573531    5.38744374328745
H         7.90790426544306    2.36566598550845    5.46120084025971
H         7.04739887573209    1.10765144507847    6.31897662457449
H         6.80916912792654    1.30159037912900    4.59667323386615
C         8.29158231846930   -1.64260395439847    5.31734616746897
H         7.50714738543564   -1.86567553821418    4.60102619899179
H         7.87374899540125   -1.76878347286821    6.31115366245006
H         9.07012571456418   -2.38934891915812    5.19375147800257
C        14.75870579233744    3.53648872622428    1.87475026310254
H        14.60659267846990    3.55331244722722    2.95116978013326
H        15.54355731685978    4.24918257182271    1.63940142140070
H        15.12409873524622    2.54853482335186    1.60757602677019
C        12.33036983673528    5.48574106430989    1.75413700227146
H        11.48860416347540    5.84154246907144    1.16799317499545
H        13.03986391047016    6.30383005186628    1.83301084409804
H        11.96773216874742    5.26274944405720    2.75382297506913
C        13.60393722276550    4.43732127553210   -0.84133673089459
H        14.12827792977922    3.63089215270202   -1.34448400711579
H        14.24993724783941    5.30970721822488   -0.86106885915038
H        12.72276165823228    4.67014346812787   -1.43112095867374

