104
CSD_code = ODAFIK | q = 0 | S = 0 | Stoichiometry = C38H59N2O2Si2Y | MND = 6
Y         9.12143012647279   16.08791710222942   13.99876358076252
Si        7.84182832678407   15.49197831226697   17.45979446150706
Si       11.02666763256217   13.03287358014621   13.18360908497325
O         6.73469249781985   14.72010122664254   13.65787126825912
N        10.53297836860473   18.29326705615295   13.99824770038937
N         7.89120746059401   18.04791627502344   13.38250972571825
C        10.13233093993540   19.21904465995578   14.79285850322158
H        10.83643220922505   19.98106244121565   15.15368018611943
C        12.04622555613196   18.37945805502559   12.14573901666436
C        12.94862438750916   18.06222360042260   14.39123923593113
C         7.67359996985081   18.88601920722854   14.43991405406581
C         9.29960247230144   15.96942531776544   16.37291921563761
H        10.14006460992745   15.31023864522967   16.62469834066182
H         9.60877339467161   16.97386644204471   16.69476034625268
C         7.31447622290247   17.27673982970875   11.17644095339632
C        10.90030248631626   14.89603808639573   12.95586736875542
H        10.90297340417217   15.13122339170541   11.88375080946057
H        11.82811116528833   15.34013226496250   13.34271110881150
C        10.83625388322347   18.56803558534314   11.25944821839446
H        10.00904417367230   18.01245558119814   11.71928803432553
C        14.22267109415108   18.02133711151439   13.83873401037975
H        15.07557363605929   17.86598522682872   14.48223326840183
C         7.25204271691404   18.26672197153229   12.19323948981379
C        11.85681864192171   18.26304853854763   13.53521338442855
C        14.42107392642087   18.18224981410786   12.48254816459632
H        15.42156574100418   18.16418485169518   12.07610583903259
C         6.64795717018073   19.48701825260928   11.84884643585691
H         6.65896246714422   20.29017119954678   12.57043161014488
C         7.24616216033930   13.70491811372453   17.10440035319423
H         7.03451924479829   13.56591083278827   16.05052407712364
H         6.34367229971859   13.46976046123914   17.66098287517717
H         8.00123552657909   12.97931343553719   17.38913946609244
C        12.77231965850026   17.81858034429231   15.87365150529766
H        11.70952668515361   17.88270878163745   16.12419540920823
C        13.33504690169037   18.35281024311062   11.64165702290027
H        13.50207738658008   18.46334281013940   10.58204076481707
C         8.76752985581702   19.40145684560579   15.19945559675871
C         6.37495642939436   19.27783589022728   14.83127267433793
H         5.53479594972676   18.90531467922413   14.25941390158099
C         6.15506693349865   20.06993415136924   15.92964139662669
H         5.14378309005988   20.32101813217337   16.21631657413426
C         6.07926438624506   19.69568683130916   10.60952011521590
H         5.62263718841805   20.64901907271963   10.38672401839873
C         6.40677389242107   13.36523141772838   13.37221581273278
H         7.18523929278011   12.73205757531680   13.80046622814591
H         6.38468174707260   13.21722757994820   12.28305938012678
C         6.73869574381198   17.49544384620498    9.94120691442173
H         6.77553365534310   16.74036392901400    9.17165024650455
C         5.00883114329897   13.11554758826985   13.97140912862030
H         4.37027344472706   12.59962329198421   13.25651784139122
H         5.06870572843587   12.51096303732007   14.87389368332093
C         5.50133287371911   15.42075935395198   13.55728786293579
H         5.22601438339088   15.54143804326121   12.49924191769417
H         5.62838568110209   16.40394273135007   14.00871677311142
C         8.21120299824012   15.54686448112911   19.34370783539433
H         9.00699686913960   14.85687082176723   19.60699390004342
H         7.34092745829516   15.28399474202700   19.93766651011178
H         8.52699189252095   16.53981124055800   19.64894764823739
C         4.49244080944781   14.52935776359976   14.28237173290510
H         3.47595758707462   14.69405788821332   13.93351313615440
H         4.53623837353553   14.72504592262497   15.35290645084457
C         6.37556296525511   16.69044904355333   17.17803785192901
H         6.59106217466632   17.66541921390689   17.60323951967719
H         5.45972987449097   16.32958897724544   17.63627193495426
H         6.18476802405888   16.84003653871624   16.11967874591308
C        13.51892793246051   18.86614128867475   16.70281141697321
H        13.32256386922294   18.71401453493989   17.76208727842372
H        13.19675812810682   19.86999575724238   16.43257588371409
H        14.59200218161938   18.80008794232571   16.54173256142803
C        13.23624134046939   16.40401957535921   16.23343897341540
H        14.29611526611591   16.27466001621905   16.02794497712557
H        12.67711587602394   15.67056382260934   15.65370961470009
H        13.06415256568650   16.21350006350118   17.29067801820685
C        11.02865942636228   18.03616429180180    9.84045412684233
H        11.71773131267237   18.65720679994434    9.27238854034185
H        10.07208054158075   18.04260026960210    9.32086851474461
H        11.40969475578193   17.01712819772394    9.86066978947719
C         9.92206255263369   12.07470775444517   11.93766948322215
H         8.87446033116461   12.34241702623901   12.03522229557552
H         9.99836179456766   11.00387461985495   12.09758320768930
H        10.22377688527253   12.26910151230738   10.91297977767073
C         6.10294477851055   18.69738747430293    9.65504189432961
H         5.65452459909865   18.84675555481960    8.68509794641753
C        10.43864504187613   20.04693664055289   11.21984617679191
H        10.22519267189575   20.41154505184288   12.22184780142967
H         9.54446169586410   20.17767201864013   10.61379982062497
H        11.24289180762065   20.64577459131638   10.79561052437471
C        12.79421890445767   12.31949940111990   12.96425255447309
H        13.16725009017439   12.49159757176846   11.95936147715131
H        12.82728292857823   11.24984074492583   13.14801539957930
H        13.48825971451845   12.79144896068212   13.65284778520917
C        10.44774742485704   12.53876658371876   14.94343537233771
H        11.14685941578521   12.89637408615795   15.69346004535896
H        10.37771958732104   11.46076274375469   15.05669914707463
H         9.47353548822158   12.96486291312524   15.17709661130945
O         8.00844430579951   16.11074859998567   11.50628288193873
C         8.50788184545971   20.22834779672282   16.30212663268675
H         9.34768444118295   20.60817964090977   16.86850872434805
C         8.18324280253438   15.16518730398827   10.47132996255220
H         7.22253134428073   14.76173331064640   10.13020887950706
H         8.78372358742451   14.36049374987571   10.89296485166773
H         8.71214417609023   15.60348639564694    9.61841028460413
C         7.22782517258072   20.54989527115156   16.68094272551834
H         7.05015842499413   21.17378084164464   17.54359781920384

