57
CSD_code = ODAHAD | q = 0 | S = 0 | Stoichiometry = C24H18Cl4MnN5O5 | MND = 6
Mn        9.40224152697532   11.03103686287252   15.27265898102536
Cl        6.28743354377285    9.02537975740871   12.24949388713798
Cl        6.31214207916951    5.90019385306543   12.42975966652101
Cl        8.24386002574161    4.47702971018382   14.37634687401251
Cl       10.18470324707880    6.12040900422683   16.18171731685664
O         8.70002084312589   12.90620270494447   14.80397806779061
O         8.29276613529861   10.27801896958758   14.12810617409704
O         9.87834358600268    9.09143276536820   15.72949830768586
O         8.05861313291626   15.54488636121911   20.21838577996599
O         6.40333391358686   16.53836545531156   19.24899286249000
N        10.75370567216235   11.88393946019742   16.74766264758151
N        10.97545349024430   11.19436505811111   14.24935553425144
N         8.20681731953342   11.13052766927284   16.90138714115419
N         7.90278431559672   11.78051208487302   18.98217357495663
N         7.39970085352949   15.83576851316466   19.21789026662454
C        12.06217919746665   11.33110062039858   16.38547786482426
H        12.10179322129842   10.28569494392460   16.70999840700034
H        12.88783077680571   11.88522326094877   16.85326942357185
C        12.16298202378979   11.34131002253259   14.88104218479493
C        13.36281393530306   11.43865155648577   14.20430328153317
H        14.28093040416390   11.55635838917998   14.75884160267269
C        13.37139773786048   11.37444760141344   12.81678320308463
H        14.29552425038042   11.44570914031305   12.26671138103820
C        12.15570096059844   11.21701989398798   12.16590072272579
H        12.10626720579215   11.16185797244747   11.09048741754429
C        10.99355882343609   11.13573100422532   12.90708566317864
H        10.02813093319959   11.03605140235469   12.42610995237632
C        10.29715838645340   11.49319504293932   18.09113524957619
H        10.67163310638955   12.17803081622868   18.86268938475128
H        10.65020736058142   10.47855097257140   18.30487888654038
C         8.80549036515501   11.47975505022649   18.03237431152278
C         6.66888486511834   11.62066549631321   18.41673628527312
H         5.76815988977744   11.80245419209925   18.96467996322734
C         6.86830198308020   11.21908744377988   17.12880182942124
H         6.15451020146667   10.99303659523809   16.36168274709377
C         8.15617987914149   12.24179694055274   20.32202876881704
H         9.04389775815615   11.75750519580068   20.72476413650440
H         7.30317661015551   11.99430443287046   20.95092600757593
H         8.29623971349097   13.32762282906730   20.34530476218513
C        10.79327998002911   13.36006195164108   16.65209940221131
H        11.18905641408669   13.61413045587194   15.66179229459510
H        11.46965252021218   13.76277114113674   17.42033916631195
C         9.42604240694154   13.96443549696048   16.79897165157303
C         9.07256218898653   14.68345107529368   17.90778491280560
H         9.76416262451423   14.82410831959611   18.72766317237905
C         7.80579202202237   15.26928497780794   17.99970160169973
C         6.93551831376146   15.22219475924441   16.90158356769026
H         5.98687263217923   15.73210989494653   16.97609323196597
C         7.26732113821946   14.49116318280670   15.79734650135175
H         6.58861991238363   14.40114882384217   14.96438372962562
C         8.47818894961244   13.74324360427592   15.73883680545444
C         8.21827828901855    8.97784383452416   14.13240565305833
C         9.12028849561598    8.32277871792291   15.04127220564232
C         9.10932382568104    6.91727129399451   15.09890330798717
C         8.24585939463119    6.18990365768186   14.29547900776625
C         7.36915512438876    6.83523812550598   13.41173048203887
C         7.35365649392414    8.21993164123689   13.32789278685942

