97
CSD_code = ODAJEJ | q = 0 | S = 0 | Stoichiometry = C47H39Cl2CuN4OP2S | MND = 4
Cu        7.04490454602706    7.23407772530418    4.48974756871960
Cl        7.34510743888399    7.54348900444460    6.69451057984328
S         4.80015129047919    8.72199293140264    4.27019316538668
O         4.63891425518518   13.56355535501718    5.14833359416788
N         4.78904266936374   11.31401414744987    4.73544112704881
N         4.48844125504631   11.34475804166670    3.41510518707367
N         5.92562822913942   10.99179048123884    7.19992940743955
N         5.72449685165102    9.96311000441716    6.39720718333169
H         6.20699937031311    9.05194012830566    6.67286342257779
C         5.15148117297861   10.05331375932573    5.18277937691400
C         4.94265622879681   12.45424919345100    5.53669823425067
C         5.54421689481254   12.16854651514149    6.84533039709855
C         5.73201226846235   13.31178241625156    7.77951639243233
H         6.28819297345362   12.98386678110479    8.65160005893978
H         4.76182623213817   13.70025388314120    8.08684298416841
H         6.25819668969280   14.11791558219346    7.27140881346889
C         3.80130458290818   12.25427827306413    2.85138997361845
H         3.33038817189446   13.08754049920534    3.36672599563947
C         3.64583576551757   12.20083611860244    1.41039803004634
C         2.98858019573535   13.23236836256299    0.73879545141333
H         2.58365987508635   14.06288043972882    1.29820515196971
C         2.85765936483143   13.20495778930503   -0.63587709892481
H         2.35085877850515   14.00232438853090   -1.15659538920702
C         3.38773919366487   12.13878129268906   -1.34793578195632
C         4.03891137036707   11.09847104471716   -0.69774772923538
H         4.44502964218928   10.27564743221692   -1.26516413958744
C         4.16255431236837   11.13078569536209    0.67439524243411
H         4.65189173719111   10.32925165840440    1.20389947452207
Cl        3.23329357637013   12.10259647914019   -3.06655868804961
P         6.75657534260145    5.15105985283409    3.69591041597634
C         5.28480293532241    4.23433507598642    4.25164144448479
C         4.21246446057496    4.97815816069955    4.73351714884714
H         4.28554345472795    6.05757697686617    4.76084077223558
C         3.06947799026099    4.33481334560971    5.17365641131169
H         2.23735355471491    4.91280388661675    5.54724789534499
C         2.99809241848622    2.95206644091158    5.14076471250314
H         2.10817957363364    2.44860019583760    5.48919615937533
C         4.06929461249477    2.20968461653753    4.66716182819109
H         4.01190974151787    1.13093477344809    4.64693169604766
C         5.21389227494267    2.84476967264321    4.22317739673260
H         6.05226820687944    2.26784898924156    3.85772218478708
C         6.71661418206712    4.94702250508188    1.88864131817132
C         5.55969721571544    4.59520496822019    1.20343387302665
H         4.65683706179233    4.36942962995779    1.75320986853103
C         5.56910070435453    4.53046573883830   -0.17869877092463
H         4.66992109623736    4.24837125540730   -0.70705023242236
C         6.72366678828486    4.82294857264117   -0.88468194912235
H         6.72775434308741    4.76581897671640   -1.96304105165880
C         7.87385912940127    5.19587497484101   -0.20686438093635
H         8.77319992421807    5.43565224853894   -0.75501403350944
C         7.86850821640103    5.26896020181850    1.17160696746797
H         8.76206790986628    5.57065357984166    1.70329538600029
C         8.10054555203950    4.03116531040689    4.20515894653077
C         8.57593995019761    4.20369310649069    5.50315109534989
H         8.15192777860312    4.98254976254486    6.12363871610890
C         9.58461484724700    3.39319822034703    5.98856946196258
H         9.94954720553489    3.53230861567298    6.99528558602710
C        10.12818043315546    2.40860066248503    5.17905671761164
H        10.91886621182719    1.77562581342897    5.55439138601700
C         9.66014281414246    2.23606288457153    3.88638089660045
H        10.08437627553949    1.46754588022067    3.25618014316448
C         8.64850075138423    3.04211281372680    3.39528360437972
H         8.28889536830888    2.90586820068540    2.38456666144622
P         8.02284861332772    8.70846977403169    3.08826494940372
C         7.57832101328807    8.55251786987008    1.32656308552324
C         6.27596955011894    8.14730719015641    1.04704688801422
H         5.59790088109951    7.94398937293395    1.86587451237181
C         5.85739869562092    8.00361850640266   -0.26233026879480
H         4.84575690727951    7.68781980910453   -0.47056909723789
C         6.74003442942107    8.25402108187214   -1.30019339336361
H         6.41798527055491    8.13948738859158   -2.32505216902376
C         8.04111453649404    8.64283525532412   -1.02558443215239
H         8.73035180369186    8.83172137773331   -1.83608109303774
C         8.46512833088150    8.79052539037687    0.28273739938873
H         9.48338868246090    9.08622015906220    0.49257494280246
C         7.89401402859534   10.49608004737552    3.39075961790606
C         8.27951716934395   10.92264003942693    4.66194075265782
H         8.65598042539620   10.19663828661365    5.37246857284612
C         8.17252676425333   12.25577996002602    5.00697190717920
H         8.47905799551230   12.58294383436818    5.98983111622055
C         7.66302909281045   13.16762324720205    4.09285872557113
H         7.56811162346644   14.20872444552246    4.36288632245064
C         7.26020950595978   12.74132927064989    2.83839379414078
H         6.84994303037996   13.44937809928483    2.13305726839785
C         7.37053713090100   11.40789456701117    2.48252608538853
H         7.05198477450597   11.07946279743861    1.50381719028851
C         9.82834804644378    8.46798091616299    3.09024443218232
C        10.29087282576532    7.21570644400870    3.48287327436734
H         9.57442649770008    6.46011873938300    3.78760951586857
C        11.64614446725154    6.94625346868313    3.50923080486857
H        11.99578694843199    5.97136134207864    3.81641670022202
C        12.55005351399879    7.93409425569387    3.15309537987381
H        13.61023262330344    7.72969943695945    3.17638513714135
C        12.09656055121619    9.18989503244124    2.78107959248662
H        12.80417956386075    9.96236373504522    2.51656752184312
C        10.74083270506770    9.46209147461345    2.75033401472535
H        10.38825873556394   10.44694605366450    2.47439466839571

