50
CSD_code = ODAJUB | q = 1 | S = 0 | Stoichiometry = C18H25ClFeN5(1+) | MND = 6
Fe        5.87611853300546    0.33194558441431    4.34989491054003
Cl        6.60209414947689   -1.25605260839551    5.62024934397882
N         5.22597120964052    1.70438874728607    3.06323943747014
N         7.22404685430470    1.60818085983969    4.83164159601041
N         4.28999952980621   -0.63978677439498    3.79336154608050
N         7.14819237496269   -0.35002371897804    2.73826517675929
N         4.91137170022882    0.91879271178586    5.78854536724809
C         5.75260923766003    2.99587288470545    3.50669449539753
H         5.02515835773372    3.45807896949420    4.18012557538376
H         5.91136698877658    3.68359616627710    2.66745595897447
C         7.02363415148977    2.82091455145242    4.29807892479191
C         7.89485755675314    3.87490882648093    4.52047567446924
H         7.70635390104550    4.83458908199915    4.06528849264617
C         8.99757544572861    3.68083667171325    5.33981262431616
H         9.68879679241289    4.48689484904308    5.52687628629729
C         9.17943159119170    2.43340803028107    5.91701047025110
H        10.01079714362008    2.23801015575644    6.57368404423736
C         8.27304128063428    1.42842004114920    5.63196940599838
H         8.36628101847806    0.43582716183426    6.04714705343426
C         3.76526908610553    1.60651216065320    3.10833879276264
H         3.28906090903970    2.09334544414024    2.24848378460899
H         3.41166170090175    2.09268430191468    4.02121829781544
C         3.38235816803328    0.15150244052778    3.20009418998829
C         2.16484185853771   -0.33129990612700    2.75319572593008
H         1.46491361644670    0.33314194471974    2.27126089176049
C         1.85803512760697   -1.67164744529325    2.94479691227924
H         0.91515793031639   -2.07035051574527    2.60630120783028
C         2.78593689776750   -2.47635800370245    3.58677492251318
H         2.58658300156943   -3.51852347163619    3.77299389653355
C         3.98722322283046   -1.92021087331591    3.98922374622194
H         4.74168153553043   -2.49762250610907    4.50218639538929
C         5.69902867150318    1.34049317594614    1.72129409110971
H         5.67327019902367    2.20539256255083    1.04662999398485
H         5.02363848790306    0.58314986059806    1.32027590227217
C         7.10809952996497    0.76810583798935    1.79011460664881
H         7.43226083725235    0.45299875672405    0.78937190900406
H         7.79576854215655    1.54158410716744    2.13882509978415
C         8.53007497707370   -0.62464405401309    3.13493638927584
H         8.51870289140156   -1.36659026584078    3.92971292276900
H         9.00774311044722    0.27643962744186    3.50959656515250
H         9.11266721884215   -1.00421267011748    2.29023150005441
C         6.62930835157434   -1.57587470586519    2.13553792615784
H         7.25749622241287   -1.89982477560647    1.29880626943892
H         5.61404986643250   -1.44085273756882    1.77349181443147
H         6.62783750528147   -2.35302562206418    2.89531959982624
C         4.50882408626346    0.97621002816181    6.86596599895519
C         4.00050387732822    1.05174883068895    8.19771271417355
H         4.71619820163518    0.58468212151218    8.87446862171725
H         3.05321102110433    0.51672694139828    8.26132533989737
H         3.84989553075489    2.09001721913430    8.49259758742427

