52
CSD_code = ODAKUZ | q = 0 | S = 0 | Stoichiometry = C14H27BCrO5Si4 | MND = 6
Cr        7.74971791770762    0.72984033064116    1.27794669681020
Si        8.15929254210925   -2.30643525831767    3.56578469830494
Si        6.88265662106485   -1.84732707631287    5.52775554807449
Si       10.48589034911505   -2.50414415788245    4.04423243359376
Si        7.33750041349633   -4.20940226995280    2.39054747551251
O         7.51655432475122    2.90158477709647    3.35425256493126
C        11.49130847772484   -2.28687872225437    2.43589895428898
H        12.56068732886161   -2.39027314202586    2.59922420031756
H        11.31774761781322   -1.30365143304024    2.00757254030707
H        11.20328311869724   -3.02013793048122    1.68959677403386
C         7.08294640342797    1.74125711736303   -0.17908064479232
C         7.51561948171712   -2.89830303210357    6.99395766533347
H         6.94026934005682   -2.71403355894910    7.89658919808313
H         8.55390774718228   -2.67668893519994    7.21863909420024
H         7.44674962808690   -3.95923193266247    6.77552649071304
O         8.48060034588377   -1.77541800090500   -0.22789130723105
O         6.64078610101923    2.29900829292882   -1.07737856308910
C         8.64250383403759   -4.90270147914837    1.18210218860653
H         8.26028520961399   -5.75327429760784    0.62369772184306
H         9.53550566770918   -5.23070956478752    1.70556277574048
H         8.94019361218618   -4.14879922653979    0.46098865590666
O         5.14799493748929   -0.39055990340975    2.30792930982987
B         8.03104951057550   -0.74446853673551    2.49309764548069
O        10.65185488717810    1.50679473176014    1.07277848215932
C         7.57044417041325    2.12139540994048    2.51087530126088
C         7.05567355083736    0.00275229191671    5.96695031146842
H         6.52315718992427    0.26261048787424    6.87785971575209
H         6.66118074383698    0.62346446345464    5.16735561169220
H         8.09610900732214    0.27845067297208    6.10644423342677
C         5.02935093649179   -2.22567948105798    5.26867672125241
H         4.43567879519305   -1.94962146894165    6.13627878580558
H         4.85795594636640   -3.28102137570556    5.08013754202263
H         4.63995151829969   -1.67336670324593    4.41970727756922
C         8.14736518934698   -0.79306977480299    0.29131343161519
C         9.52651709823214    1.26565897594384    1.07741782776632
C         6.11104571288419    0.05333109765536    1.83603086603970
C         5.77630096084387   -3.73261596579719    1.40248847058595
H         5.31015338931909   -4.59306041621196    0.92966715239205
H         6.02147013114007   -3.02187212747660    0.61805225762317
H         5.03193772153568   -3.26671499065650    2.04080310217233
C        10.88640794614857   -4.20944333577536    4.81015945231942
H        11.94236032088256   -4.30635797403723    5.04610446737678
H        10.62944922751922   -5.01697689635130    4.13188356502341
H        10.33189284838839   -4.36617440867087    5.72993395039658
C         6.89723469914604   -5.58899060633633    3.64080487936373
H         6.54546894450270   -6.48566706028717    3.13858021730094
H         6.11709268045471   -5.27181129240889    4.32500079344500
H         7.76124088909159   -5.86706191755449    4.23616863315343
C        11.03120789767624   -1.14166366437788    5.26729474043443
H        12.09809601133764   -1.17939895032326    5.46919876973683
H        10.51712972216599   -1.23322425597527    6.21880603999626
H        10.80822133319903   -0.15711752523771    4.86747528405096

