39
CSD_code = ODAKOW | q = 1 | S = 0 | Stoichiometry = C14H18Cl2CoN4(1+) | MND = 6
C         0.13984221840489    4.00346995652641    8.78925577507250
H        -0.34562471449114    3.14001866230926    8.32347894981833
H        -0.62863877677886    4.59399957069394    9.30108788352955
C         1.13700561758053    3.44870508117249    9.76918212896898
C         0.75043977536007    3.00800317176260   11.02571419536335
H        -0.27795376037729    3.10982695879745   11.33429356436500
C         1.69007571564350    2.42470541006330   11.86000552466450
H         1.40772993629749    2.06464774549568   12.83654651811608
C         2.99380240082385    2.30853041401449   11.40548601756110
H         3.76029724514694    1.85399063070721   12.01097852624263
C         3.30785744870168    2.78220781351115   10.14423751772154
H         4.31256018947115    2.70076753094905    9.75356291664065
C         0.20755619855831    4.65578173794273    6.41534557276380
H        -0.14504769474707    3.62834958925728    6.28241104209028
H        -0.63851022104837    5.34002039102913    6.28745929650656
C         1.27338635612577    4.88320855352042    5.37925454062244
C         0.97447095358996    5.27816443438147    4.08529501808323
H        -0.05007191166711    5.46987890877524    3.80857738866139
C         1.99833134899885    5.40157752373997    3.15947635225394
H         1.78597916600335    5.69292209396167    2.14306611053798
C         3.29480703192221    5.13719938986768    3.57017938304280
H         4.12547625147872    5.21396350077994    2.88837841550250
C         3.51793966051596    4.75770623402816    4.88200686545498
H         4.51499673112615    4.53114880840615    5.23300129214328
C         0.95620173414340    6.20121415072740    8.10272405526349
H         1.09765173328387    6.77153558615620    7.18113874303915
H         0.05061666981732    6.56900868455671    8.59750507067837
C         2.18183921666911    6.41371550761005    8.98836687622316
H         2.34742883452897    7.48529855631513    9.14296318552632
H         2.03306467636805    5.94852217066773    9.96501211249159
Cl        4.67603145948222    3.30887099323842    7.39607308053769
Cl        1.87970972886419    2.07658763007629    6.86888334245606
Co        2.64396606200799    3.97806999878000    7.56633969314928
N         0.81823721531300    4.77778940504576    7.74489333901760
N         2.53280959992245    4.62932332407869    5.76918063123718
N         2.40344065316990    3.34123877288180    9.34227889176646
N         3.31275591429773    5.76672875950059    8.31477975565271
H         4.10263506578926    5.63604978846445    8.94706648732387
H         3.65890426970252    6.35975256020615    7.56091393990936

