105
CSD_code = ODALAH | q = 0 | S = 0 | Stoichiometry = C44H56N4Ni | MND = 4
Ni       -0.00009581407711   -0.00000253287383    3.05474905171070
N         0.59196340691674    1.46766281415696    1.83501672681483
C         0.37433921325056    2.66094241577211    2.34683412634929
C         0.69157136000266    3.94412568499754    1.63532007534889
H         1.15185968555823    3.74862873190332    0.67041539113037
H         1.38501810235609    4.53201422827927    2.23626071088186
H        -0.20529314482721    4.54386295421839    1.48376225632148
C         0.95296524894452    1.33693640236073    0.48838210163767
C         0.11113111237405    1.73388876338497   -0.56028420365113
C         0.53173474927151    1.54092246432258   -1.86757105612526
H        -0.12827029541463    1.83556923670763   -2.67166763162184
C         1.76719137910159    0.99249549455572   -2.16905632951011
C         2.59234295500830    0.61004773130828   -1.11958242761375
H         3.56207782075225    0.18055907116065   -1.33424063921597
C         2.19842579961695    0.75911326081348    0.19692755286983
C        -1.23331186812643    2.35134814312374   -0.31543989271323
H        -1.95616408447471    1.95566702244082   -1.02463605846758
H        -1.18707368937422    3.43246277153450   -0.45383480411094
H        -1.58269640417266    2.14649900578550    0.69251441153397
C         2.21250324992234    0.82350997890038   -3.59090625663929
H         2.87521673398737    1.64108587700035   -3.87807556184825
H         1.35997622927251    0.82576807123947   -4.26598982841733
H         2.76073623593423   -0.10838996205358   -3.71734087698490
C         3.07360071897591    0.31868375769449    1.32833353766642
H         3.55307919691554    1.17523015136928    1.80358053746959
H         3.84449480522541   -0.36843736985530    0.98830604174744
H         2.44863842915584   -0.17196860413662    2.08511227999457
N         0.43960263420041   -1.54538803285660    4.23342720580066
C        -0.07959095077929    2.69472296356060    3.69542795537465
C        -0.16733505217197    4.00926618695603    4.41612750879194
H        -0.61187792291191    3.88494567615476    5.40021296029061
H        -0.77948741674773    4.70424392891456    3.84173454516672
H         0.81892487273213    4.45794475086656    4.53459548497904
C         0.70304921922242   -1.52455149102775    5.61514653027190
C         2.02095060084740   -1.40864367988509    6.07026372421031
C         2.26953633516796   -1.38739325003594    7.43267649943766
H         3.29161103530409   -1.30237509181607    7.77732263762426
C         1.24219214308522   -1.48180786239743    8.35916799135504
C        -0.05770063767669   -1.60713665555671    7.89141116575840
H        -0.87068936600818   -1.69409246860122    8.59869633633294
C        -0.34644994263748   -1.63889124462563    6.53834982233305
C         3.14184085721176   -1.35146250232854    5.07815792510653
H         3.34489764061322   -2.34531063313494    4.67654919546279
H         4.05182352707417   -0.97171177205642    5.53621245937280
H         2.86210782520274   -0.71061596252019    4.24243411244306
C         1.52196730672435   -1.43481665795560    9.83163854401156
H         1.35241380439930   -0.42718639066382   10.21304970367797
H         2.55383570158957   -1.70738669303358   10.04154676552790
H         0.86249053363162   -2.11117990524864   10.37216910121565
C        -1.76131973458306   -1.81211973637893    6.07593943716190
H        -2.00830097404092   -2.87152204564151    5.99161581265884
H        -1.90212281613661   -1.35103531445531    5.09982568363920
H        -2.44886235975474   -1.35998201928468    6.78573414091364
N        -0.59190501109159   -1.46769964038606    1.83495577864775
C        -0.37429964744319   -2.66096448923600    2.34681349191803
C        -0.69157257610293   -3.94413419594698    1.63531224787911
H        -1.15184147674439   -3.74861180195421    0.67040034740083
H        -1.38503153770111   -4.53200235748672    2.23626101790788
H         0.20529671885374   -4.54386110203073    1.48376659316363
C        -0.95297534493133   -1.33701353924938    0.48835205826906
C        -0.11116816831318   -1.73400998018610   -0.56031916011641
C        -0.53178609841846   -1.54103418354673   -1.86759523052105
H         0.12830658198088   -1.83546616100977   -2.67169182757312
C        -1.76718133480959   -0.99245887703075   -2.16906271786174
C        -2.59225440583866   -0.60985765034051   -1.11958273980395
H        -3.56215980590814   -0.18074534715982   -1.33422185922199
C        -2.19836623821307   -0.75902900228822    0.19692458125377
C         1.23333518250957   -2.35132460496785   -0.31546183137207
H         1.95618981601612   -1.95564251913171   -1.02466922918996
H         1.18709130687768   -3.43242845771027   -0.45383823689725
H         1.58271272158594   -2.14646717088444    0.69249944773951
C        -2.21252258267236   -0.82350843770514   -3.59090498364596
H        -2.87528607561566   -1.64105951598268   -3.87804345768620
H        -1.36000146511924   -0.82582453680894   -4.26599488571060
H        -2.76070661954385    0.10841573623662   -3.71735189027078
C        -3.07359691235032   -0.31871335915473    1.32833364715740
H        -3.55311677576466   -1.17525608721517    1.80355939501684
H        -3.84447708785450    0.36843669118090    0.98834507686254
H        -2.44864984137761    0.17188727660646    2.08514892459749
N        -0.43958289040156    1.54540885911228    4.23346075067237
C         0.07961940393200   -2.69471257978267    3.69540947888047
C         0.16733634011163   -4.00924162640948    4.41613424851289
H         0.61188369724069   -3.88493118771434    5.40022018986732
H         0.77948293605499   -4.70422475241373    3.84174774774607
H        -0.81892409083931   -4.45792571680858    4.53459844565875
C        -0.70304051529561    1.52458069203791    5.61517445481814
C        -2.02094770212298    1.40867875137814    6.07027288133707
C        -2.26954106130735    1.38742403110149    7.43268337259049
H        -3.29161273956684    1.30235050668409    7.77731960013222
C        -1.24219803892337    1.48180138964313    8.35917841803097
C         0.05769966221669    1.60711236901103    7.89143543651523
H         0.87067827105398    1.69412471031123    8.59872173912677
C         0.34645796015644    1.63888939749855    6.53837835732858
C        -3.14182574629022    1.35145678841200    5.07815761493060
H        -3.34489041549790    2.34529269187449    4.67653878598947
H        -4.05181709238742    0.97171116007667    5.53619614107476
H        -2.86210317905834    0.71060923117271    4.24242849850461
C        -1.52198501261428    1.43481381352640    9.83164411738118
H        -1.35244348146607    0.42717932487170   10.21304698053702
H        -2.55385301326472    1.70739563142299   10.04153916069041
H        -0.86250120491092    2.11117277551672   10.37217194957343
C         1.76132152435911    1.81212136513707    6.07595669015945
H         2.00830623899403    2.87152520324458    5.99164712677150
H         1.90211836760395    1.35104985440450    5.09983551803749
H         2.44886046461929    1.35997096899847    6.78574525370724

