77
CSD_code = ODALIR | q = 0 | S = 0 | Stoichiometry = C35H38N2OPt | MND = 4
Pt        5.85807043327336    7.55476714827010    2.09812144085320
O         7.43513294959278    8.60580944967031    2.83608220201056
N         4.51537514283011    8.36239401720610    3.35000349568744
N         4.28603549867091    6.66202708063320    1.51112907151641
C         7.30921095431705    9.47653968688412    3.79100486814218
C         8.43431092954958   10.21476948090016    4.24051257148508
H         9.38289671764253   10.02128922098055    3.76314041823877
C         8.33683569820761   11.14977712891526    5.24263329353653
H         9.22669810961119   11.68572638813030    5.54228203042278
C         7.13044752658006   11.44149220237132    5.89265765079574
H         7.09974045962759   12.18834616093135    6.67110241562215
C         6.01156327463687   10.75515836394446    5.49668153471515
C         6.11041732966923    9.79574987106136    4.47471019028205
C         4.81085080169839    9.26354184434191    4.26095773577217
C         3.86123440406315    9.84956688679487    5.12103364772435
C         2.55117265978034    9.46110260592142    4.95495974337804
H         1.75129521050286    9.88756813702966    5.54217718013776
C         2.24076363508104    8.49598558609755    3.98195085076445
H         1.21495158018510    8.18925214816143    3.85107860899521
C         3.23845163204865    7.95019504066464    3.18783823311614
C         3.11320870330996    6.95056665744246    2.11810153906132
C         1.94732485475733    6.31773647858927    1.70309526824568
H         1.00593644253143    6.53784868402414    2.17963893125801
C         2.02005971336917    5.39877820870935    0.66530466550391
H         1.12452947057503    4.89781125491692    0.33015463255436
C         3.23542775460115    5.12329075671286    0.05758645420588
H         3.29030031083356    4.41132731487753   -0.74934798467853
C         4.38456898522066    5.77625078840703    0.49950017168429
C         5.75333415982255    5.64323205378860    0.00478950506228
C         6.11722607478919    4.78826469976440   -1.03388583087175
H         5.37569696638165    4.17260704154257   -1.52312625768233
C         7.43487045297667    4.72509936319390   -1.44303544000324
H         7.71849596467522    4.06279644862588   -2.24839989824085
C         8.39173050140724    5.51203966706197   -0.81960658851331
H         9.42125424485437    5.45771364105124   -1.14512930625331
C         8.03658518425464    6.36430299040988    0.21474618570904
H         8.79363481916972    6.97142000618776    0.69119568943487
C         6.72190460374771    6.45988304458197    0.65922016489812
C         4.57840427211557   10.83361136417602    6.01777420251796
C         4.59827839586576   10.36301706847423    7.48856811909181
H         5.09878610148855    9.39143862397489    7.52387691132544
H         5.21556776067095   11.06759094883452    8.05013057633889
C         3.23948402399691   10.24098763063380    8.17224736977561
H         2.63832343323955    9.48248276197415    7.66816102791674
H         2.70533778995780   11.19111060982236    8.11878009753604
C         3.40005589523400    9.84997725549223    9.64042961188269
H         3.91896782615659    8.89077126283903    9.70505479432807
H         4.02001831328258   10.59402986790980   10.14621299925144
C         2.05563666431717    9.74748833800496   10.35652893706451
H         1.53798267801150   10.70774689113556   10.29120989542890
H         1.43336404990265    9.00223787251158    9.85498277728289
C         2.21532796509883    9.36327427365413   11.82543781628269
H         2.84927749034892   10.10066050285768   12.32314065880431
H         2.71925802480736    8.39640958025109   11.89198702447061
C         0.87264172426739    9.28563626538732   12.54148056817708
H         0.36558843514380   10.24760888894831   12.50642056180245
H         1.00966056331639    9.00815774408646   13.58396069362782
H         0.23099350099621    8.54396833453705   12.07045871710993
C         4.00104351023535   12.25001570348819    5.87765210630055
H         2.95167718674863   12.24497712999738    6.17848853246960
H         4.54265598189891   12.91619315787079    6.55210888262373
C         4.10467171554437   12.78511482462245    4.45052986038186
H         5.15172336800021   12.79231900355475    4.14082728998032
H         3.56473383899204   12.12048795667028    3.77116159071922
C         3.53239089527667   14.19552413265482    4.33602011335240
H         4.06930448850578   14.85907481997531    5.01817556970112
H         2.48274240619923   14.18795197889352    4.64158842357420
C         3.63962553454978   14.74163001504045    2.91473689367847
H         4.68917905856226   14.75249587703748    2.61213876059399
H         3.10725081685646   14.07594407496513    2.23098610086807
C         3.06513340895948   16.15110084859217    2.79488660214477
H         2.01434683156531   16.13900791109731    3.09435362536261
H         3.59591986887284   16.81570667053044    3.48045502222603
C         3.18059425869540   16.69202529172135    1.37521592614171
H         4.22305779613510   16.73404855532250    1.06741497817766
H         2.76272485509738   17.69404889124000    1.31092714201798
H         2.64502511624083   16.05109952241259    0.67813013509747

