34
CSD_code = ODASIW | q = 0 | S = 0 | Stoichiometry = C14H14Cl2N2NiO | MND = 5
Ni        6.16391975268438    2.66702668945476    2.92933916125744
Cl        4.45771692461551    1.94849648831547    3.99940551598724
Cl        8.14680936970600    3.19837455117118    2.29187562488228
O         6.15304890102490    4.36502184242878    4.07675978177120
N         5.07475831351802    3.22624367339544    0.95494162665689
N         6.29926382666538    1.06405506810839    2.05628945849995
C         4.45280440383076    5.52006808493388    1.29415010858037
H         4.82695253994749    5.28101538693930    2.28711262732706
H         3.43749253623215    5.90460606503180    1.36599965336834
H         5.08128377911606    6.29334206249437    0.85429270703817
C         4.49117934989351    4.29229932312881    0.45114605995633
C         3.92560513957598    4.28366568422285   -0.83922183243552
H         3.45727319511968    5.18053279964526   -1.21510705593112
C         3.97651806115364    3.14390263443932   -1.59571516953073
H         3.54977161416239    3.11021145821562   -2.58812351374117
C         4.59556502247777    1.99532032763576   -1.06973945925282
C         4.69344669760958    0.76763497902596   -1.77940809981706
H         4.27106808112884    0.71550455918260   -2.77224917867628
C         5.30061363747633   -0.30889620068316   -1.22404310508645
H         5.37522077327225   -1.24247969315376   -1.76179717351651
C         5.85970491728467   -0.24638627532014    0.08282080375862
C         6.49834955779896   -1.33854193989314    0.69248358892849
H         6.57726157409322   -2.27533781409727    0.16104335837526
C         7.01224343547246   -1.19526867082694    1.95465748674360
H         7.50775349636467   -2.01703574442072    2.44734816662541
C         6.90113404303317    0.02998135477833    2.62763840005680
C         5.78167424745585    0.95602105672910    0.81670441592173
C         5.13645548351471    2.09584712584045    0.22885698694421
C         7.44626296057402    0.21682492710491    4.00044529504004
H         8.13601175745337    1.06780910889220    4.00075844539957
H         7.96512693575568   -0.67160870469615    4.34995235660628
H         6.62192816521890    0.45057320483412    4.68168829107054
H         7.09216053676094    4.59506020677259    4.15322568453414
H         5.80392096998789    4.12131638037044    4.94546898265328

