53
CSD_code = ODAWUN | q = 1 | S = 0 | Stoichiometry = C25H22AuI2P2S(1+) | MND = 4
Au        3.66272048920592   10.82656437761713   18.01402463961480
I         1.68349437768563    9.99270842802495   19.51430259341170
I         3.47393699534870   13.32710646695404   18.75726907976222
P         4.00675687306409    8.55329601600903   17.69666341572811
P         6.47812030028519    9.78833942518862   16.64515205948283
S         5.33687880142315   11.42012426302575   16.41225179230021
C         5.35502173597589    8.34248387394318   16.44141073438853
H         5.86995545099218    7.38596561465210   16.57878434852261
H         4.93249000832068    8.38902708614177   15.42926059892264
C         2.64542885455852    7.57760263600222   17.05277246669313
C         2.18426277807477    7.87200408373523   15.76769712424406
H         2.67470359075670    8.63012896157220   15.16830349584013
C         1.07996539484587    7.20587744750398   15.27318623614967
H         0.71894354154484    7.42842722303177   14.28099390652421
C         0.42868704700477    6.26604361604697   16.05887320177407
H        -0.43769537604870    5.75333339276442   15.67140152492524
C         0.87027363059254    5.99892273023530   17.34606399653288
H         0.34738261148869    5.28365705099497   17.96128592862165
C         1.97043660972443    6.66083446464174   17.85732497805069
H         2.29864950174335    6.47940934081410   18.87086852159019
C         4.67990142354159    7.75949786139792   19.16461526673992
C         4.98342652389965    6.39844832583124   19.09804508543722
H         4.79008613889932    5.84238227611879   18.18892095488307
C         5.50651067798038    5.76537914979103   20.20891683561532
H         5.72998064100099    4.71037406794700   20.16672649820613
C         5.73050073730261    6.47917793653013   21.37742266067812
H         6.12858402279807    5.97632088133427   22.24487606990329
C         5.43631904812727    7.83148118658469   21.43892243960660
H         5.60348064246599    8.38592531583628   22.34890651986919
C         4.91090442683500    8.47615875008079   20.33429311884337
H         4.68016452647443    9.53181315392582   20.38836884712221
C         7.23206612102073    9.64754458968788   18.27938138565282
C         7.83814324991269    8.44639931762660   18.64706806535633
H         7.87503672722077    7.61882454096419   17.95138504961011
C         8.40073430469773    8.33142779564599   19.90298836125412
H         8.87250651767331    7.40597640692574   20.19465114578824
C         8.36298869156234    9.40394591527997   20.78344318995325
H         8.80248652497304    9.30556991617988   21.76372002226056
C         7.77803276970038   10.60240900808969   20.40746766016541
H         7.76152929665474   11.43937152672041   21.08798295556741
C         7.21327389495875   10.73238784628463   19.15044862448141
H         6.76936948276536   11.67119800662484   18.84491998904598
C         7.71246853062844    9.78020569644049   15.33744141342167
C         9.06863722144554    9.72646212962336   15.64460390135935
H         9.39325680794843    9.66291068174784   16.67381618094670
C         9.99163543782210    9.76523370985122   14.61459338436138
H        11.04568634836724    9.72692822292835   14.84142252371212
C         9.56512145680510    9.86544449816633   13.29920612539870
H        10.29083645173060    9.90349905013077   12.50190090796448
C         8.21123534433901    9.92984717408071   13.00039591181720
H         7.88511822836460   10.01830077208561   11.97582206159076
C         7.27720774291945    9.89058441143999   14.01727373620428
H         6.22095682261915    9.96371337926312   13.79516246412284

