53
CSD_code = ODAXEY | q = 1 | S = 0 | Stoichiometry = C25H22AuI2P2Se(1+) | MND = 4
Au        8.94248883935134    3.43122640691038    2.54770354210944
I         8.79478906629491    3.06843997883649   -0.04486505808904
I         7.57735206785704    1.35783879689249    3.42843254074667
Se       10.12589997833186    5.46032844302634    1.76869010787051
P         9.21308286475282    3.84574032722509    4.79478893781976
P        10.05156501236180    6.50383549830773    3.67863776702832
C        10.39976943583014    5.25845184894118    4.98932130339573
H        10.31117809689153    5.69070055167453    5.99249824072165
H        11.42638483799553    4.89837386908989    4.84115112925173
C        11.34587580059629    7.75561841109362    3.72197357629521
C        12.64405710079140    7.36643384542408    3.39663103309643
H        12.85594955595264    6.33594751859575    3.13813032456073
C        13.65145313458314    8.31134388586801    3.38635494987722
H        14.65891407607639    8.01946920760237    3.13381250329096
C        13.36198924147430    9.63441397618310    3.68874404328202
H        14.14988255186926   10.37112581759632    3.67340808372390
C        12.06580798337723   10.01860005280967    3.99601853637269
H        11.84446181616387   11.05099397353848    4.21766036601970
C        11.04627208512827    9.08330888862979    4.00972715986198
H        10.03075816887796    9.37870916125943    4.23363001539187
C         8.43535409081157    7.22694739286141    4.05163685280875
C         7.48278374346854    7.33129482288871    3.04384723951086
H         7.71224227921595    6.98641958939896    2.04214397518653
C         6.24627050967254    7.88360812910742    3.32683864128137
H         5.50569891941302    7.96559843220272    2.54665605730490
C         5.96758826638729    8.33270109783321    4.60747046560080
H         5.00376824943610    8.76457762643339    4.82715221274907
C         6.92491182578350    8.24188046234787    5.60792010215362
H         6.70845350817289    8.60651868953204    6.60006724502014
C         8.16297850384791    7.69182132660048    5.33775542886509
H         8.91547868298145    7.63500709442581    6.11255038178455
C         7.72901852637419    4.43167082777973    5.61911155431090
C         6.55032354101112    4.62800070377297    4.90685893699283
H         6.50696257907023    4.40512895039928    3.84823336580420
C         5.42834213729570    5.10035276276015    5.56225351365553
H         4.51029055774895    5.24233990597910    5.01421251525423
C         5.48311627440886    5.37403230842451    6.91937762203074
H         4.60260512389229    5.73057281637606    7.43058879437974
C         6.66029223917436    5.18228127072860    7.62820831679095
H         6.69596428487790    5.38914038141953    8.68683981360122
C         7.78908167237949    4.71375828344603    6.98471303253733
H         8.70735860595846    4.54774485055034    7.53429907448204
C         9.97415512924143    2.53144760157169    5.75206040674794
C        11.27921595831937    2.15672476977478    5.42603700279867
H        11.82748586072183    2.68512601650317    4.65463788003817
C        11.86184936148783    1.08581754824477    6.07545633993842
H        12.86977648417710    0.79168164473299    5.82659146456490
C        11.14400983547085    0.38147502915602    7.03075707373739
H        11.59993210936809   -0.45931817505549    7.52956832104455
C         9.83747037839426    0.73678991525102    7.33053628093687
H         9.27471477232296    0.17173640530543    8.05684315799427
C         9.23937987156157    1.80320242900424    6.68647029708873
H         8.20969440300126    2.06051863075839    6.89055753035773

