101
CSD_code = ODAYOH | q = 1 | S = 0 | Stoichiometry = C48H42AgN2P4Se4(1+) | MND = 4
Ag       19.81374764054650    8.99812067281056   24.30260528717279
Se       18.12797925686264   11.00678105154902   24.44953093711513
Se       20.41120386792701    6.91530519462030   25.81349403142965
Se       22.50996372861034    9.66910021906670   23.36517241540353
Se       18.79718282067057    7.94975613984840   21.69166510702307
P        19.09083703521520   10.82159156479813   26.31188625500201
P        18.68050678746256    7.79550748447264   26.62695909283282
P        22.07209649546506    9.67528594030332   21.28755554778707
P        20.59665674823575    7.03084693941209   21.07831426421769
N        18.87794936047066    9.38352162123584   27.19299831377553
H        18.62679962078608    9.52393208187719   28.16767023721762
N        21.79671286584714    8.14218955577247   20.60150046523876
H        22.66046301797543    7.68675123636624   20.30953977768680
C        18.46240501460619   12.01676353383258   27.52193686978600
C        19.15840941010737   12.19189080344928   28.71502860717098
H        20.07035347105738   11.63608768040937   28.89603900068840
C        18.68276251162985   13.08884780424949   29.65237484934429
H        19.21856284197258   13.23229722536288   30.57838219088072
C        17.52305463901822   13.80703123820256   29.39977482316388
H        17.15742141201088   14.50833083074900   30.13395675819887
C        16.83656598771249   13.63462014930176   28.20863611510058
H        15.93780986502875   14.19906622041055   28.01287759442918
C        17.30742676099364   12.73947307027452   27.26480956032736
H        16.78961524836822   12.59831066021684   26.32351051320440
C        20.88113339556628   11.10790516609202   26.26658091874501
C        21.28036869557766   12.29057026558220   25.64870235074543
H        20.52410683317451   12.94849837450151   25.23463938224159
C        22.62355154734907   12.60293318772940   25.57285192111808
H        22.93767706618530   13.51953409030052   25.09708052003409
C        23.56461654811603   11.73357194836488   26.10519943884179
H        24.61459260731207   11.97401016426988   26.04012885991979
C        23.16582412569156   10.55799227549967   26.72155832573554
H        23.90064879943254    9.88556554261821   27.13741930215539
C        21.82116812089719   10.24147049557864   26.81254286114918
H        21.51149204685000    9.32958280895265   27.30713474812542
C        17.19710542582032    7.80355281392911   25.59114539702643
C        17.12662462949727    6.93536194749130   24.50875843516386
H        17.95038790723648    6.25808003484301   24.30819125204168
C        16.00261321523253    6.94482426848659   23.70074549157925
H        15.95115218562575    6.28465839086853   22.84827768324281
C        14.95744934793261    7.80935427319894   23.98301511910801
H        14.08658531373076    7.82538745898391   23.34594846502499
C        15.02118780054234    8.65736565330453   25.07915246770460
H        14.20246797799277    9.32613713500353   25.29784783918468
C        16.13942824166233    8.65863569307554   25.89031213251421
H        16.19951320745164    9.32471189684757   26.74306131465275
C        18.24234707023946    6.97224596919708   28.17724473001477
C        19.19296426407924    6.96495804039513   29.19371231875012
H        20.14231641998009    7.46471101824164   29.04194629793460
C        18.92567152199020    6.30560707282532   30.37750099426321
H        19.65944096657621    6.29993414405409   31.16908460255294
C        17.71784690998732    5.64340734408131   30.53995249084814
H        17.51127286869507    5.12420893431853   31.46310969064922
C        16.78113868871668    5.63466019749858   29.51927615881414
H        15.84735543061160    5.10816172672724   29.64506426097715
C        17.04013435562327    6.29509642674159   28.33088179372805
H        16.31627255723341    6.28681974654158   27.52724089133223
C        20.63040084164872   10.65717298633686   20.80655294007005
C        20.30184821104943   11.73990953052889   21.61235024462038
H        20.89093222258704   11.94017983799439   22.50006840983388
C        19.22518433465019   12.54032397013557   21.27556220401710
H        18.95780301169008   13.37627597438481   21.90429891047868
C        18.48847518181011   12.26060473498715   20.13617887718413
H        17.64169142580495   12.87846768932270   19.87899877079900
C        18.82944917180068   11.18773077412749   19.32683950024065
H        18.25006830192850   10.97248735878178   18.44206116190059
C        19.90436190877275   10.38263026690391   19.65308623532036
H        20.15708245000054    9.52992028064605   19.03843947028340
C        23.47247908245564   10.24226202400177   20.28669281222725
C        23.41264422087766   10.12703437709362   18.90040444467767
H        22.54920036652541    9.67849943731002   18.43021606952447
C        24.46634723573710   10.59185409193778   18.13608258874473
H        24.42867283750675   10.50360989105345   17.06099965643577
C        25.56712599711307   11.17372675525553   18.74755384267138
H        26.38553259487442   11.53620623490047   18.14468369908516
C        25.61884089794518   11.29348418015927   20.12699252839403
H        26.47580521069139   11.74774214468196   20.59988565711626
C        24.56874975611242   10.83134012511161   20.90029935001554
H        24.58780078169381   10.91056046560388   21.97975695084627
C        21.30407372714536    5.91499346028586   22.32135513271751
C        20.47698735852973    4.85725267179119   22.68971285104830
H        19.50921556879380    4.76031201358890   22.21184351371688
C        20.89765719071142    3.96255581060191   23.65380017908179
H        20.26138838429148    3.14002226391258   23.94337174215083
C        22.13647441150186    4.13139150874633   24.25580377559153
H        22.46162761886683    3.43908705792236   25.01733840584145
C        22.95610977829660    5.18635665346822   23.88860452560266
H        23.91813692564597    5.31636689879178   24.36010464289442
C        22.54731853347887    6.08220052405023   22.91470929072355
H        23.19079820903345    6.90571153138852   22.63387049653106
C        20.41667458903819    6.05545613726130   19.55939092684452
C        21.41527421644239    5.15220022004357   19.20827260346666
H        22.26906367555022    5.00949232088348   19.85788484291555
C        21.29479815817952    4.42980493786806   18.03546178211252
H        22.06315031268948    3.72444616008403   17.75786905418002
C        20.18635064637215    4.60746685314673   17.22101880735725
H        20.09609891455989    4.03852220161366   16.30839579652578
C        19.19182377145176    5.50499346545848   17.57681192975941
H        18.32797261786956    5.63528799923629   16.94324857522781
C        19.30421609815242    6.23114847618382   18.74898073287617
H        18.53555074903353    6.92828427763279   19.05761899830383

