39
CSD_code = ODEBUX | q = 0 | S = 0 | Stoichiometry = C18H11ClN5O3Re | MND = 6
Re        5.39356848753594    3.59514421114925    0.72282762020922
Cl        6.95040424145767    4.53026184000812   -0.81928940396338
N         5.55314424096031    1.86165323259164   -0.58542025737591
O         3.58804362747871    2.12177076398261    2.75571770960838
O         3.17716232490568    4.94992073801578   -0.94346442710647
O         5.67157689909827    6.27801298906548    2.22765329769237
N         7.30608338031984    2.75258425835752    1.53812563787644
N         7.93849093185199    1.43175938138884   -0.38170873917075
N         6.58723325224303    0.50718339231845   -2.01768512526112
H         7.35424009837949    0.02730126853863   -2.45697429118736
N         7.41525273883897    3.75348153170210    3.65202103349351
H         6.43253168240536    3.98768836255609    3.61264311021494
H         7.98900118465776    4.16176041832103    4.36944122762230
C         8.18712945920505    2.08989809680474    0.69407780807575
C         6.71866776277916    1.32899792663609   -0.93470499848610
C         4.62493989507806    1.36087275526896   -1.45823520284429
C         5.27126273804392    0.50570976845969   -2.38168765608209
C         4.57499604013725   -0.14109193600407   -3.39145350512856
H         5.07884622437873   -0.78571816362127   -4.09488766249405
C         3.21402953777146    0.07593304134849   -3.45165327829308
H         2.63524297776684   -0.40647925776164   -4.22452480000936
C         2.56174137755489    0.89946567356238   -2.52841806298103
H         1.49300708295696    1.02608924076833   -2.60776300804393
C         3.24515175484774    1.54709898235983   -1.52311007465473
H         2.74230107930676    2.16975699998757   -0.79880280531448
C         9.52653512762635    2.14137996441477    1.27846243465775
C        10.75111051743422    1.67411337122823    0.84862152928810
H        10.84400091788014    1.15379330456270   -0.09086436365936
C        11.84979403367842    1.90799013979481    1.66639475223086
H        12.82490791044914    1.56165286056824    1.35827657183347
C        11.72079154284064    2.58239341700499    2.87348897974858
H        12.59625209441809    2.74865319368744    3.48305393540876
C        10.48864649042859    3.05190787740024    3.31024014515077
H        10.40264274657186    3.57717552569777    4.24997105832511
C         9.39448964606026    2.82641331785822    2.49665722422345
C         7.97805935957676    3.16453819707136    2.59877848761272
C         4.25425025925415    2.67602140486957    1.99455756386741
C         3.94170589666038    4.40553408450105   -0.28923575106740
C         5.52686443715903    5.25737782553559    1.71837328598295

