84
CSD_code = ODEFAG | q = 0 | S = 0 | Stoichiometry = C42H34Cl4OOsP2 | MND = 7
Os       10.54871104511346    5.81273930164148    5.07580594242895
P        12.13604119804660    5.59918158408832    6.82963374260164
P         8.75669714302739    5.77378045822747    3.49706856866779
Cl        9.48360299265685    4.10656245715801    6.32113217935843
Cl       11.53092968112926    4.10991829735235    3.82523116077348
Cl        9.44818409207368   10.15273774980431    6.30109741124083
Cl       13.12094146742640    8.81790269034497    2.53454600863714
O         9.32850463804676    7.02528980656089    6.37778685598640
C        10.05723233288550    7.64507292971837    5.63139107434376
C        10.33740888008899    8.97358048475844    5.36027709224740
C        11.26789926764854    9.33794185040431    4.40592060881108
C        11.93685612797290    8.29065436153977    3.72315031755591
C        11.76495898205750    6.95470800019881    3.87996124067359
H        12.42302032660221    6.38038728385540    3.22586934639931
C        11.57257906676875   10.76004313283656    4.09710853592057
H        10.96720918827714   11.42958586673094    4.70015694263395
H        11.38844559326559   10.95341272458936    3.04064803506492
H        12.62817012236106   10.95954229685780    4.28020830389386
C        11.46860666701911    6.44563010152860    8.28790891173920
C        11.48820224451415    7.83847325801307    8.34569470454199
H        11.96855539894347    8.39969777367837    7.55331494633994
C        10.88411135162642    8.49666275897043    9.39972120553067
H        10.90443902402024    9.57615146011812    9.44127370308185
C        10.23916501432221    7.77344237103156   10.39108516268640
H         9.76055574130999    8.29045830354636   11.20982241690015
C        10.19292968992845    6.39102089994086   10.32247473530887
H         9.67297531924790    5.82838800475066   11.08401444111707
C        10.80016615206641    5.72524782745402    9.27288489653400
H        10.74779280594210    4.64736658749977    9.20546419854579
C        12.69663038339271    3.99583325210879    7.49084932291321
C        13.44586719375907    4.02283843993947    8.66710925430572
H        13.63543133942740    4.96577407190682    9.16346651804925
C        13.93859272500651    2.84804657227742    9.19892856119685
H        14.51269302190674    2.87202480876080   10.11407457383660
C        13.69787322754132    1.64145325463646    8.55842950727325
H        14.08340341666990    0.72375576079262    8.97799397012244
C        12.96808973260909    1.61606187834951    7.38318578597015
H        12.78387635793590    0.67864088336782    6.87969528915229
C        12.46845938703286    2.78983150938262    6.84350064286346
H        11.89747604479258    2.76407149687385    5.92842385312360
C        13.77915333301259    6.33154051681290    6.51990021650388
C        14.45009490483714    7.19210742266389    7.37849899687951
H        14.00130281942229    7.49798321905724    8.31291505210850
C        15.70687079137727    7.66238738884832    7.03675559801447
H        16.22197480739239    8.33916702525802    7.70328540672968
C        16.30336363349316    7.26954325061762    5.85099317140256
H        17.28011366637430    7.64784056192623    5.58792740527580
C        15.65050131080758    6.38360627868678    5.00819135404647
H        16.11994785555042    6.06204982578487    4.09063752996251
C        14.39557506532986    5.91341028796009    5.34210045530263
H        13.87954963118809    5.21065931740707    4.70034589895236
C         7.22482261826289    6.41365718009867    4.23180782065303
C         6.20809989425123    5.53996911979319    4.60538950618029
H         6.30287569358330    4.48415841446178    4.39398817947698
C         5.08586072044333    6.02137484980557    5.25537833617189
H         4.30075920620215    5.33784549115258    5.54379951029683
C         4.97236100396619    7.37060063314899    5.54547502904479
H         4.09712117102778    7.74262349515827    6.05731743134746
C         5.98950625059201    8.24269965491305    5.19090580122935
H         5.91172217900590    9.29375579956466    5.42864771084278
C         7.11491632242546    7.76790426179951    4.54539392198700
H         7.91730939817837    8.44658033930008    4.28692826950326
C         9.09365961298423    6.78775652213348    2.01845829008686
C         8.31907366976417    7.85195446019246    1.57596341248757
H         7.40786435985344    8.12014346409021    2.09083186872065
C         8.70730547749422    8.56625591369306    0.45429498327097
H         8.10404205576935    9.39710490326564    0.11758230584115
C         9.85719353233404    8.22036191191904   -0.23395053490523
H        10.15861215812911    8.78884719104274   -1.10120882107113
C        10.61379831879343    7.13653312931918    0.18437585052527
H        11.50150189756513    6.85242666847804   -0.36040490482151
C        10.23396825248311    6.42233527655236    1.30324593287017
H        10.80956709052642    5.56707852482104    1.63239947914911
C         8.20504578955074    4.22291600983450    2.71286823034283
C         7.45686307971128    4.30751298003895    1.53944093069608
H         7.24157382118810    5.27410931416635    1.10492301482449
C         6.99249761630455    3.15695400068487    0.93230603622579
H         6.41375462600729    3.22748496960645    0.02279887872102
C         7.26929346175766    1.91675253861264    1.48673506419082
H         6.90756442228375    1.01937195279962    1.00649825178443
C         8.00635424240859    1.83128577684864    2.65482641504376
H         8.22076164673866    0.86733232383819    3.09149305861378
C         8.47376150635854    2.97926462025687    3.27168424477178
H         9.03905670080850    2.90794066195736    4.18874544235441

