59
CSD_code = ODESOG | q = 0 | S = 0 | Stoichiometry = C22H26N8NiO2 | MND = 6
Ni       -2.05133896441739    4.01811864528045   -0.00000203447180
O        -3.96315399226307    5.03415953722126    1.60356121227873
N        -2.75888342959979    4.68665578207355    1.53980740259180
N        -0.27716485506291    3.87969021333401    1.15657865874295
N         0.43871487428019    4.32988256490147    3.19544300690884
N        -2.63141581626153    1.93778104321179    0.63381942484992
C        -1.95682211275287    4.79058421486365    2.56339793872938
C        -0.62008542731667    4.35598885137119    2.34674891207620
C         0.47852496643700    4.82676859809749    4.54415448864690
C         0.67503140142975    6.34163155590047    4.57301232407270
C         1.49764849153021    3.82223234008460    2.48133982149167
C         1.03276713540614    3.54624917706125    1.22969267342873
C        -1.75768357174541    0.93958730385670    0.57118373990304
C        -2.06899452769775   -0.35654185539871    0.95091575856431
C        -3.34612670150861   -0.62572760377817    1.41552043861943
C        -4.25791472676306    0.41529181849851    1.48071873187089
C        -3.85535016631649    1.67956911892303    1.07991263855637
H        -2.30687778098596    5.18366589802822    3.51193699365400
H        -0.45863069598238    4.56235403761502    5.04271462901918
H         1.30092882848919    4.33150117613458    5.06781611757462
H         1.61418079167481    6.60964576248770    4.09452684996901
H         0.68982460675804    6.69780387283562    5.59945750037798
H        -0.13534623788814    6.83391289729853    4.04080925362159
H         2.46395178410462    3.69745758736818    2.92562647648279
H         1.54661259561708    3.13444228168199    0.38395010644886
H        -0.77288073942133    1.19071506853765    0.19869509151659
H        -1.32640486519896   -1.13671468552009    0.88268840968929
H        -3.62458984813749   -1.62476180551307    1.72020911611195
H        -5.26344228487903    0.25196099785481    1.83708828310715
H        -4.53537463273026    2.52076627115178    1.11997617307228
O        -0.13956726489896    3.00197531788797   -1.60358624603247
N        -1.34381416426484    3.34954426760719   -1.53983809463221
N        -3.82546650625830    4.15664816006915   -1.15659448471976
N        -4.54138708319300    3.70661373820342   -3.19547707562945
N        -1.47117627935634    6.09843906707796   -0.63379522609045
C        -2.14587323541698    3.24570743395810   -2.56344266585961
C        -3.48258570730794    3.68037524795801   -2.34678704782981
C        -4.58131251926507    3.20971647058616   -4.54417748754661
C        -4.77800529688164    1.69486504670545   -4.57299397549616
C        -5.60027939717768    4.21430679631652   -2.48133941152009
C        -5.13537435733757    4.49018518938342   -1.22968019295384
C        -2.34485964816567    7.09668152208855   -0.57120194507948
C        -2.03345445229057    8.39279835231835   -0.95089472809731
C        -0.75630942259988    8.66190103518330   -1.41551088107982
C         0.15541181518584    7.62082263961966   -1.48071069297948
C        -0.24721261051986    6.35658310780643   -1.07985236247705
H        -1.79584302204802    2.85262654516496   -3.51199281515930
H        -3.64416325386353    3.47401850038851   -5.04280171305364
H        -5.40369579191044    3.70506405484953   -5.06779146707643
H        -5.71705763078056    1.42697968189195   -4.09417566606952
H        -4.79319625816362    1.33873827882432   -5.59947927980618
H        -3.96747840751027    1.20247941038386   -4.04106121962709
H        -6.56656919044540    4.33919536491855   -2.92562335242062
H        -5.64918424182062    4.90196979243889   -0.38390592258750
H        -3.32961096119033    6.84566819211961   -0.19850466050192
H        -2.77594901704511    9.17304608455842   -0.88254708822000
H        -0.47778382702626    9.66091568765722   -1.72020338635204
H         1.16090610897664    7.78406169708629   -1.83720502303441
H         0.43268752377666    5.51530265148582   -1.12012602557096

