50
CSD_code = ODESEY | q = 0 | S = 0 | Stoichiometry = C23H18MnN3O4S | MND = 5
Mn        3.35064534873427   11.55663157175666    3.87290597991960
S         6.69306160378267    8.44638387977715    3.63969174841341
O         0.81678730831310   14.00804017404192   -1.43677556760719
O         2.46927609787247   12.38957441347699    2.61542486137957
O         2.03109886751791   10.56414371931376    4.58916712037159
O        -1.43790671526513    9.30862991997120    7.58110479966646
N         4.89417022988109   12.79365998350035    3.28755599962157
N         4.09730167653638   11.93975510854240    5.57014070254936
N         4.47642590429794   10.08943314366934    3.64570350891576
C         0.95208938535580   14.70109765813226   -2.65661022150636
H         1.17548649909295   15.75999907981160   -2.49449487761159
H        -0.01240611038407   14.60943243425426   -3.15326616899647
H         1.72709334718814   14.25524595379535   -3.28717077979863
C         1.87419010511331   13.93543870008793   -0.59906722009720
C         3.12132110631303   14.52985625091984   -0.83667743522507
H         3.30265807872270   15.09460977901580   -1.73639821959175
C         4.12800806491462   14.39372253080276    0.08966982324281
H         5.08752252638029   14.85454274455987   -0.09625858696142
C         3.95290053490825   13.65890835596759    1.26700301629038
C         2.68123223525182   13.05518332816159    1.51621494991809
C         1.66565292066182   13.21820242224786    0.57419190292009
H         0.70176460020767   12.76725075900101    0.75121403493628
C         4.98992821759914   13.54696446324852    2.23618748244456
H         5.86996594501946   14.17360978423079    2.08553418552701
C         5.88285933021348   12.80532094800587    4.27664634896087
C         7.21038084533434   13.18237243973178    4.10726222135148
H         7.57814948897894   13.47644956297091    3.13645307355434
C         8.08448814986882   13.12299286536065    5.17807700094227
H         9.11866965782488   13.39748934791475    5.03907701647131
C         7.64433923789143   12.68585426328790    6.41712270438354
H         8.33686941107079   12.62451813743475    7.24257759873753
C         6.32967857231553   12.29648558337976    6.60167059356505
H         6.02131758548806   11.90782796847389    7.55955572384966
C         5.43123173501185   12.35872111509437    5.53949091231113
C         3.46791294469397   11.80916292162903    6.72752540372258
H         3.92897985056891   12.22098956987523    7.62272184054324
C         2.22252025365918   11.17958759531468    6.88786730472348
C         1.61901714177408   11.10646323410766    8.16561932742288
H         2.13433603289917   11.55729641376362    9.00152730828358
C         0.42048378299728   10.49208659770438    8.35829307884425
H        -0.04189606204487   10.43989534972601    9.33047387214846
C        -0.25570728786039    9.89114553273272    7.26921139414468
C        -2.16248096641653    8.66400722783806    6.55965332243793
H        -2.45456691872439    9.36621272025896    5.77285180564158
H        -3.05547826451238    8.26491843883700    7.03785870039267
H        -1.58748597590931    7.84391559891402    6.11941896182342
C         0.30227936973838    9.92845963505600    6.01336494767887
H        -0.17620538505368    9.48117686876944    5.15642511687872
C         1.54178175833065   10.56864994324356    5.77598202985903
C         5.43935793384155    9.40048396228734    3.65598135260466

