92
CSD_code = ODIBOS | q = 1 | S = 0 | Stoichiometry = C38H47N2O2P2Ru(1+) | MND = 6
Ru        0.38597333531226    6.24185150418027    2.62606107887114
N         1.04804973821636    5.70071426610405    4.64636223911201
N        -0.36807756568147    6.67305430257808    0.60993864591462
O        -1.53875506117009    5.44857236682065    3.17261976400224
O        -0.06750815596254    4.17895460970447    2.21592374557903
P         2.64925521464389    6.32147177143918    2.15838765604026
P         0.07094453096987    8.50588790544636    2.97396465182392
C         0.15785001650194    6.35914532532284    5.60897600037916
C         1.02636060936699    4.25028009269331    4.91693131037485
C         1.97385026157834    4.01103109723121    6.10598921099315
C         2.84152517501411    5.27703117903649    6.17996770347429
C         2.45401908654057    6.07143856862168    4.92260367741898
C         3.34644143530034    5.67856588266072    3.74877240457600
C         3.62533450172492    8.29491204042274    0.49595818498980
C         4.40003883449863    9.37905449431166    0.13193775046607
C         5.19404853000961   10.00744323326902    1.07745770429900
C         5.18639851798765    9.56005340342087    2.38719154751305
C         4.40449018394478    8.47901308499252    2.75526070413388
C         3.63180221968659    7.81963454759219    1.80697084291290
C         4.69768542939193    5.32897655378518    0.44869444108868
C         5.29358253961441    4.32293752471586   -0.29223138657625
C         4.67890139624800    3.08924203870155   -0.42404366396656
C         3.46180331878451    2.85645054486939    0.19573799756962
C         2.86115739356647    3.85760113234067    0.93560189405810
C         3.46870154476746    5.10501878715263    1.06041407706915
C         0.39201074883848    5.85786767109164   -0.34419740573482
C        -1.80252072631055    6.37876260392016    0.42671743491708
C        -2.26529640726105    7.19472913811114   -0.79353131009177
C        -1.18116162526382    8.26663255732225   -0.98566511321221
C        -0.27078970859359    8.10324770664050    0.24179188294048
C        -0.76153201225507    8.98111528099244    1.38950651458076
C        -2.32804236468601    8.34300678423279    4.32764854895548
C        -3.38664067147247    8.79889726647006    5.09067820305261
C        -3.35326152761502   10.07548349364762    5.62812254595981
C        -2.26174131206499   10.89385608259542    5.39117963179348
C        -1.19942228698512   10.44359301866942    4.62641607374926
C        -1.22165058824037    9.15748938228325    4.09700484467181
C         1.84499163110131   10.57879901630878    2.16956566806671
C         2.78294697211418   11.56090168965787    2.43639275987590
C         3.28178090323107   11.72598731254086    3.71684332763383
C         2.85120050371360   10.89108829090378    4.73509529756414
C         1.90890141368803    9.91590867417136    4.47218121068143
C         1.38044358696589    9.75934512362073    3.19121488928593
C        -1.21167771951893    4.32955151345691    2.70833222460930
C        -2.18179462302133    3.17453693075624    2.74778581752586
H         0.37152610181540    6.05177135048206    6.63455999601432
H        -0.87581165838716    6.10232990873035    5.37720224882668
H         0.26618153492297    7.44156631898784    5.53560101265225
H         1.37889364909990    3.71378847688116    4.03244310979749
H         0.00731774656387    3.92350322098844    5.13032251021588
H         1.41722744540662    3.85941733919776    7.02949527443428
H         2.57611565073143    3.12018666359084    5.93933269672530
H         2.63178206972664    5.85042431159555    7.08231477336154
H         3.90431648476387    5.04391849523497    6.18069571152599
H         2.50874941175454    7.15487624229022    5.06827789023074
H         3.38242370670134    4.59010634015517    3.65041727096791
H         4.37003006476405    6.03035604881193    3.89449977645837
H         3.03388752854181    7.78300793338829   -0.25265156540335
H         4.39691257577022    9.72508281080977   -0.89083793279434
H         5.81709893177902   10.84128201873710    0.79348413692916
H         5.79958383329356   10.04993017923915    3.12821326290251
H         4.40733395059600    8.15728375459521    3.78544771509584
H         5.19443429341061    6.28218427892505    0.54849741619540
H         6.24727924567334    4.50461732583924   -0.76425321540196
H         5.14950161740073    2.30974636791928   -1.00316230385911
H         2.98246814264482    1.89337308265218    0.10364274038407
H         1.91185567984236    3.67781729387962    1.41980561116461
H        -0.00096512751336    5.94920214732835   -1.35862735660958
H         0.34039125651514    4.81115366312014   -0.04467747340246
H         1.43878193812349    6.16298710219607   -0.34290927662818
H        -2.34923063781318    6.68579982229528    1.32192731286312
H        -1.95223690675600    5.30678721027947    0.28675236079301
H        -2.35872766952067    6.56471956799564   -1.67670121061228
H        -3.24086958288890    7.63895023121206   -0.60636996912921
H        -1.60132957345718    9.26939364054506   -1.02790553168483
H        -0.62300230910696    8.10671252943780   -1.90756447661119
H         0.77677749551010    8.34060881909134    0.03120540624126
H        -1.83288758576835    8.83031973209618    1.54819745707230
H        -0.60650700420342   10.04000347616009    1.17188173205641
H        -2.35241442190211    7.34761732901196    3.90740160431880
H        -4.23916152725437    8.15979207462441    5.26528206353166
H        -4.17767704157255   10.43337613413901    6.22537466106948
H        -2.23678367634199   11.89299597752677    5.79912434163336
H        -0.36008217056353   11.09737208045825    4.44366460422427
H         1.48067064479476   10.46287586635379    1.16026469986531
H         3.11964425552894   12.20573028836305    1.63894075237314
H         4.00215249357017   12.50267823230958    3.92163840381052
H         3.23871200068249   11.01074307744320    5.73577306945320
H         1.54665709298751    9.28942899927405    5.27749565872788
H        -2.14599958143509    2.71089623668263    3.73263581320029
H        -1.90767626710372    2.43155472006712    2.00390291872432
H        -3.19406131854368    3.53259548424321    2.57831306935468

