47
CSD_code = ODIFAJ | q = 0 | S = 0 | Stoichiometry = C18H16Cl2N6O4Pt | MND = 4
Pt       20.12476486956195   14.01104180875661   10.84861223739864
Cl       17.92880621450133   13.81153308611934   10.57768430840135
Cl       19.89544573325995   16.21642341988412   10.70886891803796
O        21.10306044932382    6.29153494180220   11.51285327493422
O        22.54525497430739    7.87436435867802   11.42353473954926
O        26.58081206908473   12.81127677498771   11.70037773180455
O        27.83680737049757   14.52722482464692   11.96682322373148
N        20.48689133369475   12.00916737055742   10.99633489526177
N        21.98815915012595   10.38242925053659   11.27214451054760
H        22.84749460297907    9.86252702644096   11.40006616321598
N        22.14789594594961   14.04050624890872   11.10738314424370
N        24.02466453069672   12.87339889530079   11.41031780629527
H        24.69847229552520   12.12668276863637   11.52672054118903
N        21.39132251827143    7.45950215042298   11.37636224983138
N        26.75916950726681   14.02481709989002   11.73855403664717
C        21.77840456845602   11.72493360084227   11.17881805807560
C        20.77203644523590    9.78003265464350   11.14056691792064
C        20.37582869861137    8.43487069465829   11.16216080467683
C        19.01301609686653    8.13389704272532   10.98049745817552
C        18.08176397632261    9.18549748560519   10.81734009346011
C        18.47916226886176   10.51151221081819   10.81190427505255
H        17.77496318542268   11.32101641094948   10.68903829313682
C        19.82605624756055   10.81286203900679   10.96725334565415
C        18.54953150719269    6.71623262683696   10.95668707739976
H        19.16261167942729    6.12090597838373   10.28213704023647
H        17.51375883724914    6.63911866027905   10.65044611933487
H        18.65932148502680    6.26788057531342   11.94411385318416
C        16.61931684315530    8.89822692667060   10.65067364650778
H        16.06640391471258    9.83127782928580   10.60034827603109
H        16.23760209100490    8.31746027078043   11.48817893378409
H        16.43267452352896    8.34402501390264    9.73204538305331
C        22.67449006561730   12.82090744626686   11.23919983668468
C        23.18755851129282   14.92397364768523   11.19283263291499
C        23.22153638544438   16.31092982541761   11.12769451254517
H        22.29551508351009   16.84871625149227   10.98780040716701
C        24.43898896659525   16.95990143640289   11.24157863796872
C        25.64489542525195   16.24494774395185   11.42681232469227
C        25.61325377753496   14.84064332611336   11.51566818416075
C        24.37776275980063   14.19012751323370   11.38397840617856
C        24.43678347902361   18.45779379226378   11.16789857254517
H        23.41651631690218   18.81839501183203   11.07915672204693
H        24.99594723263469   18.80660784542569   10.30100619378766
H        24.87841039415832   18.89344519223666   12.06211206886449
C        26.94027045135779   16.97833121435593   11.52372626847860
H        27.68045606908375   16.54369011890394   10.85369349154393
H        27.34945645913585   16.88772270558582   12.53004679445263
H        26.82428468897742   18.02848688256218   11.28584758919234

