159
CSD_code = ODIMUK | q = 0 | S = 0 | Stoichiometry = C64H86Cl2N2O4Pd | MND = 4
Pd        6.83977445166248    4.92231835461887   10.58345714826269
N         7.31030946749904    6.66781511678534   11.37394549893806
O        10.34056748705083    9.70083918752791   13.97427756363126
O         8.29922296394514   10.18812424069671   14.76646926375033
Cl        8.00119759918959    4.01579608753249   12.36201783334741
C         8.39794192480462    7.34921589384838   10.93350125337669
C         8.88943207713629    7.07047476821516    9.64093903011852
H         8.35802572666109    6.34531969260538    9.02686529686351
C         9.97669057061657    7.74181271363305    9.15294342100317
H        10.33474391877070    7.53347453099751    8.15660268476731
C        10.61974300922143    8.70943948816324    9.93556881604728
H        11.47733841110921    9.23142343098529    9.53828916538022
C        10.16055652356821    9.00751158677205   11.18984285460911
H        10.65241029886631    9.76142977018293   11.78110683500933
C         9.04098003656196    8.34335311817269   11.72808440184109
C         8.47856559167969    8.61553795247165   13.00409045637296
C         7.32952330587032    7.95581183484066   13.37319624601550
H         6.86291656361390    8.18584535611141   14.31861770407242
C         6.76710733869976    6.97587516675124   12.54010456399746
C         5.54205699072671    6.26896128302676   12.95887161746418
C         5.42315022137383    5.76818614031378   14.25393883336484
H         6.25806084200360    5.84413542383446   14.93391863456264
C         4.25332405281667    5.14646193671317   14.65263495690157
H         4.17263835900431    4.75355283427960   15.65523746155600
C         3.18731585229085    5.03652432986418   13.77480945934888
H         2.26799991497818    4.56988549265110   14.09735571318138
C         3.29621511103034    5.53403570033892   12.48544293992697
H         2.46485896821275    5.45488048825559   11.80109053115263
C         4.46881980956068    6.14184317551929   12.06789607566126
H         4.52719778187356    6.58084077525417   11.07689875804735
C         9.01284806692176    9.59371393220379   13.99638523216919
C        10.94819759833400   10.56552444994615   14.93615216540171
H        11.07765556537704   11.55143878767886   14.47463144220631
H        10.27466546189029   10.67075427062257   15.79319604145128
C        12.29161831512083    9.98372025063656   15.35358844882903
H        12.91229079691795    9.85187193117665   14.46542789366277
H        12.13042869475316    8.99912371200472   15.79617392970806
C        12.99735060818024   10.89576969430795   16.35333156666086
H        13.14416209450327   11.88004542984763   15.90267009170714
H        12.36276705679073   11.02739926250545   17.23238247585839
C        14.34938209422194   10.33386004909333   16.78644543892189
H        14.97995929339783   10.18899700919535   15.90641509069314
H        14.20356487815736    9.35708149741175   17.25252899181060
C        15.05817732250051   11.26363228831117   17.76829095928976
H        15.20455477358183   12.23879420581170   17.29760224405291
H        14.42353619986197   11.41372804026523   18.64476354210866
C        16.41090045416377   10.71435790422932   18.21492542184457
H        17.04180103729788   10.54926264043500   17.33828834143902
H        16.26653732035059    9.74809124094626   18.70375025937198
C        17.11920885107967   11.66738840134099   19.17457917054902
H        17.25932869081500   12.63320705211011   18.68302676262879
H        16.48673821834349   11.83302791886064   20.04998703281507
C        18.47584555895707   11.13418988406685   19.62822765776217
H        19.10389386776238   10.95176629766716   18.75293156817931
H        18.33706203073862   10.17839329345186   20.13895852662245
C        19.18525674138914   12.11009011993754   20.56394818059707
H        19.32859178145407   13.06270070763209   20.04816001256505
H        18.55213215448299   12.29958283562217   21.43410441179530
C        20.53936265610580   11.58347515615503   21.03252575838567
H        20.39603431466655   10.63777390573039   21.56063538489435
H        21.16966753335556   11.38263950511324   20.16290500265077
C        21.24992516296650   12.57307137449257   21.95291500370352
H        21.40360910909188   13.51449094091433   21.41983633901104
H        20.61324825292938   12.78396295664382   22.81558911823349
C        22.59668139119633   12.04309480079853   22.43880104738197
H        22.44170271292331   11.10469757024062   22.97683735833387
H        23.23201478925881   11.82685479200377   21.57644213014960
C        23.30869556394619   13.03678959934106   23.35362718650089
H        22.66932825834781   13.25922222722527   24.21155092289596
H        23.47108092185431   13.97273368858385   22.81334416354841
C        24.64938356338545   12.50108960712496   23.84979915940705
H        24.48593534715077   11.56505098266696   24.38953512855657
H        25.28925254476490   12.27921823284121   22.99219384064774
C        25.36271126269483   13.49188385524283   24.76663129798264
H        24.72005116724995   13.71977259622685   25.62033199343236
H        25.53473496822996   14.42496637677041   24.22489397741795
C        26.69365758973456   12.94412374021231   25.26718738316867
H        27.18588101024628   13.66493226028200   25.91608341135362
H        27.35529820313562   12.72667687042934   24.43131006469869
H        26.54038741773060   12.02502765402810   25.82891179121412
N         6.36998969250727    3.17680381305637    9.79240042073701
O         3.34119101516677    0.14451687576210    7.19015515821472
O         5.38281512074655   -0.34325102398781    6.39897295651546
Cl        5.67864996067799    5.82965041710931    8.80629720831099
C         5.28234507494577    2.49510562256638   10.23229871628605
C         4.79019634441499    2.77372624127440   11.52463413493862
H         5.32090050491893    3.49933704731317   12.13879879914854
C         3.70306518480436    2.10189583053984   12.01223248260743
H         3.34445794736853    2.31015803443464   13.00838974931668
C         3.06074491813688    1.13398477454630   11.22933160740747
H         2.20339808221721    0.61142616904132   11.62638667295074
C         3.52044300279271    0.83622578249935    9.97517015678401
H         3.02915342805748    0.08209579413712    9.38370261025176
C         4.63994651701472    1.50086133142909    9.43737776503204
C         5.20284779174795    1.22915161030018    8.16148115569672
C         6.35189436882058    1.88915540444088    7.79291479622929
H         6.81884798838976    1.65942597307530    6.84759130056756
C         6.91384633093824    2.86896043237298    8.62643737241279
C         8.13922269503943    3.57581742935897    8.20853204456652
C         8.25914599621986    4.07669564843895    6.91359722782096
H         7.42469923013130    4.00095531694115    6.23301640034783
C         9.42923142169322    4.69858602808535    6.51593579143787
H         9.51070194411971    5.09158180549644    5.51342242385923
C        10.49446858268515    4.80869650050146    7.39466026917021
H        11.41410362449421    5.27520147514587    7.07282542830793
C        10.38463060598135    4.31094716087845    8.68385343279057
H        11.21550503506750    4.38989944540100    9.36881298664784
C         9.21182610593680    3.70279114455177    9.10028224880634
H         9.15280960959704    3.26336898024538   10.09103673617074
C         4.66893413320258    0.25130009318442    7.16870906531133
C         2.73391677452007   -0.72006836945763    6.22799567070944
H         2.60479992377254   -1.70620673284343    6.68916583993579
H         3.40749296448936   -0.82476401509746    5.37092085414916
C         1.39034287428107   -0.13851819708023    5.81076583842162
H         0.76978748240819   -0.00678938409378    6.69902247809191
H         1.55121372398191    0.84610765411783    5.36811696136534
C         0.68464613836359   -1.05077328357130    4.81121087379129
H         0.53818219906449   -2.03506153629550    5.26194018756308
H         1.31903275086506   -1.18227388514311    3.93200514430078
C        -0.66762790781429   -0.48921838575481    4.37845654883941
H        -1.29776796027237   -0.34392154695192    5.25871920368883
H        -0.52210731429580    0.48730405131717    3.91177220754478
C        -1.37688219967499   -1.41955317115087    3.39749325538533
H        -1.52309341129773   -2.39440602724881    3.86884385345958
H        -0.74264915964038   -1.57019920893141    2.52083198953180
C        -2.72977080000191   -0.87048395623940    2.95115911940937
H        -3.36022313413515   -0.70479289943307    3.82799576578457
H        -2.58555266075691    0.09545918870946    2.46167407999832
C        -3.43865545329422   -1.82398481520041    1.99242536133888
H        -3.57886960412915   -2.78942738031180    2.48468578406536
H        -2.80652567681770   -1.99038890323806    1.11691686787405
C        -4.79525689817217   -1.29059980263859    1.53894510076612
H        -5.42303310094010   -1.10771427070206    2.41435066403235
H        -4.65632757429663   -0.33498772284322    1.02787477805435
C        -5.50510287716438   -2.26661075350565    0.60370598505745
H        -5.64860949431513   -3.21907027766165    1.11977063498558
H        -4.87222486687293   -2.45652589689098   -0.26655887232448
C        -6.85910339555079   -1.73958944196565    0.13534371481743
H        -6.71561106101558   -0.79381037418693   -0.39263342271985
H        -7.48934223214553   -1.53874519368954    1.00503361656393
C        -7.56977148098351   -2.72897002758290   -0.78516052262496
H        -7.72377173907556   -3.67040846190040   -0.25217226364829
H        -6.93304470782358   -2.93997849249037   -1.64778896578658
C        -8.91629823200294   -2.19856108136920   -1.27117239461606
H        -8.76105287076945   -1.26000447107372   -1.80885416301283
H        -9.55186017093053   -1.98253665394054   -0.40892998639081
C        -9.62816491566191   -3.19184754070143   -2.18653746299761
H        -8.98860799801482   -3.41399676577563   -3.04437296120483
H        -9.79074569390186   -4.12795925447568   -1.64664351212819
C       -10.96871119966345   -2.65600223152119   -2.68291315305658
H       -10.80507664736007   -1.71987283478120   -3.22237110020816
H       -11.60874783093325   -2.43432442561870   -1.82541344039949
C       -11.68191060943338   -3.64650000852685   -3.60016757983283
H       -11.03913148769844   -3.87400248088739   -4.45385614907422
H       -11.85383858810711   -4.57975034550329   -3.05873898323660
C       -13.01290790844917   -3.09882906516375   -4.10070148357602
H       -13.50498559248173   -3.81951403043215   -4.74987051453986
H       -13.67462850164722   -2.88174420181408   -3.26480347312136
H       -12.85971857050779   -2.17954191815872   -4.66211447626341

