55
CSD_code = ODINOF | q = 0 | S = 0 | Stoichiometry = C27H21Br2NO2PRe | MND = 6
Re        1.17333645903200   -0.37472524480093    4.06662785515728
Br        1.07779996998731   -2.29783818692299    5.56716145561885
Br        0.46419385214835   -1.78108092968938    2.14101821474284
P         2.32129192262477    0.86717576993911    5.87812683797775
C         3.34231847277538    2.16080640901603    5.12324156511048
C         2.69097828325814    3.26534663704124    4.57394500608720
H         1.62334181746787    3.37524250709356    4.71572059851293
C         3.40489011309493    4.20200066603469    3.85292028779380
H         2.89712452367571    5.05614525442051    3.43009500528325
C         4.76883601644052    4.03819746708765    3.66354834296801
H         5.32373060532589    4.76367089545721    3.08837477245515
C         5.41941165087947    2.94495801155017    4.20983783403312
H         6.48150521521889    2.81857814828510    4.06304741336500
C         4.71137245562818    2.00481300414115    4.93794524506186
H         5.21923531902772    1.15012367222041    5.36316560200406
C         1.18889078819622    1.74958723668596    6.98535870000789
C        -0.05708103962391    1.19092225275918    7.25315981634922
H        -0.34739403452665    0.26486696567865    6.77368243715720
C        -0.92683001517798    1.83169865473126    8.11780675560995
H        -1.89455661407738    1.39947793121360    8.32052843233538
C        -0.55699831462197    3.02470080112171    8.71708291836509
H        -1.23785114328147    3.52599462057054    9.38861787371859
C         0.68602269073632    3.57998162143452    8.45496657065318
H         0.97472016322533    4.50924664964639    8.92380322597938
C         1.56179301064545    2.94658581150925    7.59292320892010
H         2.53302575189727    3.37741937898014    7.38888020087944
C         3.42830052190744   -0.06521775211893    6.97431059048100
C         3.45654550906588    0.19167847133507    8.34161643385512
H         2.80855832619089    0.94361378461899    8.76730751260872
C         4.31004182293716   -0.52757671324638    9.15831705023741
H         4.32608781582722   -0.32784891162532   10.21896873838565
C         5.13069716273171   -1.50644021534463    8.62351180135218
H         5.78859677863702   -2.07031805347055    9.26738137835373
C         5.09578963205617   -1.77302326369874    7.26461847733054
H         5.72232989729120   -2.54626338422239    6.84701291555585
C         4.24710348700333   -1.05855572056493    6.44064288794886
H         4.20494795439277   -1.28910475643657    5.38570960559408
N         1.60003143816754    1.19305417802327    2.61062867944961
C         0.78364090566776    2.11661849886904    2.16181808481706
H        -0.21514409762633    2.11940127462145    2.57621638748896
C         1.19057671087570    3.04221679370377    1.19274876438634
H         0.48324608191298    3.78004356210481    0.84961821356301
C         2.46812347430507    2.99784271989822    0.69561783802485
H         2.80072045750240    3.70313255714533   -0.05136208512739
C         3.36061015230279    2.00786613331751    1.15819488779055
C         2.84967650184996    1.11548186633324    2.12545568101894
C         4.69068824317136    1.83016767427491    0.73969021869452
H         5.10084895478621    2.49759679712983   -0.00195331967434
C         5.44742034046923    0.80981346874392    1.26370457227777
H         6.46531417353005    0.67946176844257    0.92706883805189
C         4.95006634629874   -0.07631054930622    2.21994069460288
H         5.56635079559492   -0.87274908111965    2.60706443678811
C         3.64594829982788    0.06110265727836    2.66741633687459
O         3.05357264960606   -0.67891454396533    3.56001004945005
O        -0.30569825626428    0.30513473406809    4.37953815367969

