75
CSD_code = ODIPOJ | q = 0 | S = 0 | Stoichiometry = C25H41ClN2O3P2W | MND = 7
W         6.54990504926474    4.03622953914417    5.47093717491187
O         6.61221013134762    3.32777257952120    8.55449833418268
Cl        7.37602091707955    2.33693315433239    3.94146133976517
P         4.68802525795324    2.47742884298654    5.17255204488885
N         4.24587104065295    2.68042297552743    3.56007948830598
C         5.52851832631040    4.72587326538322    3.67015843733643
P         7.92675382689804    5.84116243584762    4.54935238553875
O         9.16845411533880    3.19506162888042    7.04399553867715
N         6.82638509211975    6.79010952671532    3.68465454685171
C         5.84062556331316    5.95449492395259    3.07137352263954
C         5.26428683957614    6.37504946607638    1.87603695967731
H         5.54638561230440    7.31766035550879    1.43261479683234
O         5.28555173466617    6.03620919149934    7.51703951731807
C         4.33870886702002    5.56619133970711    1.25093904817191
H         3.87877506955311    5.88332398706797    0.32672958002526
C         4.00285574939713    4.34237688740305    1.79917443092889
H         3.26955603413484    3.73509922282575    1.29311327923874
C         4.59775362382372    3.91974619711760    2.98525042491462
C         3.64314204965129    1.64087139005595    2.74323674855799
H         2.71872928089876    2.00880584746849    2.28197067955728
H         3.36688632598434    0.81594304899423    3.39885245094739
C         4.60441408335186    1.13452155605583    1.66987430372576
H         4.17157769024259    0.28369860324066    1.14910185328522
H         5.54501425913612    0.83554697811655    2.12608759259067
H         4.82085334155648    1.91757107311067    0.94832973173849
C         6.46062862387720    8.18103688970860    3.90094464268751
H         6.39700837078466    8.68615804941628    2.92964654557364
H         7.25360680341014    8.66918165092567    4.46704485696654
C         5.12648495051942    8.33999364581806    4.62695424292291
H         4.91430110862754    9.39426341045447    4.78658203785392
H         5.14855152162912    7.83455707372541    5.58921741787803
H         4.32399280051298    7.90615784760249    4.03544254895917
C         4.99135814325643    0.64773379204950    5.42454259433473
H         5.38615864611395    0.29975245735103    4.46227639936593
C         3.77988110647075   -0.19787217742678    5.81807102153850
H         2.93045209011403   -0.06713783401528    5.15099814043372
H         3.45562805784810    0.03041001562566    6.83024151606582
H         4.06247212584912   -1.24956935847464    5.78942430667217
C         6.09102601304736    0.47081500161485    6.47365436301511
H         6.28057314237585   -0.58974753083582    6.63341282123684
H         5.80405225230951    0.91032658541336    7.42829516898196
H         7.02235370841539    0.92718472438453    6.13882780682715
C         3.08576729977176    2.84552030551225    6.07032645124226
H         2.34924801835697    2.07831968085134    5.80238270272609
C         3.29770663921895    2.85711830905977    7.57958087559406
H         3.70285777786346    1.91470054234797    7.94028609829714
H         2.35270795652247    3.03668562689360    8.09032334781649
H         3.98876233406283    3.65005402718128    7.85910962930694
C         2.57947093259026    4.20360287466225    5.59226338445687
H         3.34995785543540    4.96514913349274    5.72815424063885
H         1.69947736645758    4.49927689877190    6.16109528248978
H         2.31271410701145    4.17584653253715    4.53761544643495
C         8.98924634125145    5.29210573399265    3.11137099611369
H         8.23325631173673    4.80971382024546    2.47136869541906
C        10.04313673199429    4.24715775711516    3.46270721315595
H        10.28221210015050    3.65747912027746    2.57957439673664
H         9.67479017616850    3.56376737784589    4.22619913707860
H        10.96209925976715    4.70260540219223    3.81981928398410
C         9.57762145222419    6.47644658657592    2.35138951527312
H        10.00191971270758    6.13428433322191    1.40926597746944
H        10.36892075315204    6.96001543759640    2.92030443945928
H         8.80519291104689    7.21116620373606    2.13151718683059
C         8.94721460019050    7.02356030080280    5.55778043302432
H         9.12080368389080    7.91579552377079    4.94335811500016
C         8.18464693272051    7.39625833634862    6.82595737145022
H         8.73381001842051    8.15158567747805    7.38660853799150
H         8.07449927126973    6.51681634463134    7.46168527309735
H         7.19503037572196    7.78918753670199    6.60813665581883
C        10.29143615773634    6.40986857623520    5.94192406167723
H        10.97607298042717    6.38182774957534    5.10000064892581
H        10.16370768636720    5.39977148617512    6.32461793561902
H        10.75366669327467    7.00963715182637    6.72496190574872
C         8.12679365937070    3.52680480302744    6.59590484374883
C         6.73148283402202    3.52143265080223    7.38894226524073
C         5.74257972235011    5.37368989862715    6.68207701020309

