67
CSD_code = ODIRUP | q = 0 | S = 0 | Stoichiometry = C30H28N4O4Zn | MND = 5
Zn       14.94139438770025    2.22432055862042   -0.23644706352431
O        16.02304911862038    3.01704323857785   -1.79474134941291
O        14.48200488376499    1.49182727461947   -2.04794622672175
O        13.56037784508398    1.49509500840762    1.06912003193200
O        13.39541396989223    3.45711336816753    0.12793671368360
N        15.68560367331625    2.79219692013111   -8.17967892490985
N         7.68748716655814    3.17199861494968    2.97265981805027
N        16.40105636418413    0.70730160463587    0.13996139400581
N        16.19947302475073    3.16672401590618    1.21409967467537
C        16.47006115495289   -0.48273293358831   -0.40163914243398
H        15.65137784542457   -0.75087918558722   -1.05348650446777
C        17.53517755895608   -1.35921778438993   -0.15876838971912
H        17.54817296311174   -2.33099235429720   -0.62693140243676
C        18.55067743352046   -0.96091285556699    0.67626582467039
H        19.39090707093579   -1.60807839092531    0.88555978724351
C        18.49441383149312    0.31392256803257    1.26551101660246
C        17.37548837419444    1.11847116621743    0.95661606536818
C        17.26941612193608    2.42993187627556    1.52675003568731
C        16.07724211338256    4.37236656147199    1.70984108030881
H        15.19150205280899    4.91498810750185    1.41244689307575
C        17.02894033208063    4.93153998803348    2.57198258217755
H        16.88531785177472    5.92955827228020    2.95543422304243
C        18.13579215846064    4.19321597575995    2.91380177692194
H        18.89176975083364    4.59010274880697    3.57682793139929
C        18.28606570090320    2.89840280870427    2.38789205081747
C        19.39916004761012    2.05788310750437    2.67929836708555
H        20.16433523152468    2.43679602379326    3.34133632718657
C        19.49911708776702    0.81834388709593    2.14099475209396
H        20.34553035137158    0.18493224348055    2.36396877487910
C        16.46967674900976    3.85743005664446   -8.75624616594533
H        16.41150328472716    3.80316295619339   -9.84109917310958
H        17.51939680425346    3.75374576569617   -8.47265079166775
H        16.11805186427511    4.84694622500376   -8.44069024549250
C        14.70410005873896    2.15203157554027   -9.02146590451716
H        14.93786316645631    2.35101302120778  -10.06508905942766
H        13.68776723602333    2.51154879728302   -8.82044093478512
H        14.72652126498757    1.07003607947908   -8.87498796033792
C        15.58540162877441    2.68377033436587   -6.81212826079422
C        16.40920745779076    3.43538427594895   -5.95858510686404
H        17.12190501257574    4.13486457932342   -6.36406418790046
C        16.32369719191707    3.30562817850240   -4.59054270365593
H        16.95559583057811    3.89481012437362   -3.94331790598443
C        15.41637774893432    2.42462004000459   -4.01069731239344
C        14.59593516675798    1.67285254748481   -4.84645732838644
H        13.88533163725797    0.99557233732279   -4.39761825132746
C        14.67485283586451    1.79696029267638   -6.21513809402467
H        14.01384987735930    1.20119140314544   -6.82301277088644
C        15.30081915289091    2.31099279602087   -2.54109864675319
C         6.85323424242264    4.25710270214620    2.51624012700039
H         5.89792580728465    4.22170719774820    3.03534199241414
H         6.66220654876493    4.20786148628232    1.43744189897957
H         7.32113339083463    5.21725960245875    2.74388365889119
C         7.04198888542156    2.06054163212509    3.62829632570451
H         6.04803777620315    2.35981990496941    3.95325153889353
H         7.60671083140033    1.76090398859875    4.51389501516245
H         6.94166417998050    1.19177421831825    2.96687367927228
C         8.94835173615207    3.01346257838239    2.44651125707744
C         9.52691102154503    3.99770272860113    1.62890614640286
H         8.97724850388429    4.88897739871146    1.37417452243527
C        10.79943614415271    3.84679240157813    1.12611045829420
H        11.23075055489822    4.60493746298582    0.49026990038524
C        11.55204871477244    2.71128927783244    1.41068844294390
C        10.98963667868449    1.72917291701701    2.22012933123519
H        11.57007566806608    0.84525558179946    2.43665297173321
C         9.71814753728928    1.87313814107720    2.72816613755950
H         9.32019229754183    1.08488712062567    3.34610460104780
C        12.90412004448071    2.54108983793853    0.83832668153477

