64
CSD_code = ODISIG | q = 0 | S = 0 | Stoichiometry = C17H40Cl2N2P2Pd | MND = 4
Pd        3.30993903212701    0.43637997858442    4.43899330272669
C         1.23199948536299    3.32880166734608    3.69981675731329
H         1.38014810519391    4.08373636631120    2.91432729792281
H         2.21697085617179    3.06944510203828    4.10974811300055
Cl        4.09387373545147   -1.02014300501205    2.83471836087676
Cl        5.17139776948636   -0.05459936663365    5.68847539834906
C         0.36833722704193    3.93212474619485    4.81631974083915
H        -0.64305550230774    3.53468719631041    4.75498974713520
H         0.30067192719907    5.01367801531518    4.68617292296182
P         1.79236489451412    0.87182128877605    2.81811119264298
P         2.63383305249163    1.49483246239904    6.33569431077091
N         0.66642201362409    2.11684039786174    3.12876781475548
N         1.15390433272438    2.30024343957343    6.59892723978875
C         0.94598360991979    3.68256768440421    6.21540866960837
H         1.89663862279204    4.20643417663439    6.28792435437834
H         0.25822451520338    4.12302651009846    6.95086249170366
C        -0.51171394151071    2.36983065640010    2.31411432771686
H        -0.43814645574859    3.33328104818499    1.80106879795452
H        -1.41132096384981    2.38980387535543    2.93738718353231
H        -0.64086641165602    1.59740758444640    1.56142197733274
C        -0.02800283902636    1.48218705775906    6.38359618124828
H        -0.88028576958610    1.96376545396566    6.86728536547269
H         0.12059729603454    0.50758884293184    6.83702890582419
H        -0.25057173544659    1.34083366416987    5.32129451629909
C         2.71932283013003    1.33420038081038    1.24713677622669
H         3.12235128656178    0.39358289666454    0.86358222455592
C         3.89618835128185    2.22273655852342    1.66095670474398
H         4.58356861475446    2.34793828436407    0.82595011324841
H         4.45608186920077    1.75841836524004    2.48860156935102
H         3.55553416499677    3.21052531065996    1.97253303176086
C         1.88306771260788    2.01149054392019    0.16819957684874
H         1.53244006648634    2.98754266352498    0.49648514033988
H         1.02288132270428    1.40894203511983   -0.11483854158204
H         2.49501212065291    2.15928015685027   -0.72079170535381
C         0.68343127281206   -0.58997597918982    2.47868488161116
H        -0.33990356150179   -0.22045321925633    2.35050492473562
C         1.08863030691521   -1.41239990416041    1.26141990792710
H         2.11623767481906   -1.75200741363596    1.36781660528607
H         0.99743140409691   -0.84194513351893    0.33996396173164
H         0.44358476351737   -2.28666202409570    1.18375151180749
C         0.72526191659929   -1.44708053210289    3.74536912759639
H         0.05549665229809   -2.30084693065284    3.65357637222133
H         0.42159553466040   -0.85603491239480    4.61137473940698
H         1.74187819970560   -1.82280873151702    3.90491233247660
C         3.97400191613201    2.65677169596156    6.91570381357481
H         4.77144983729506    1.93622802276045    7.14143081160530
C         4.49486674392018    3.49257068487225    5.74387550508681
H         3.82581379279247    4.30680391999465    5.46895729836998
H         4.64207848789758    2.83680915218317    4.87249253788763
H         5.46094716431888    3.92510706090076    5.99926455611326
C         3.71730088732580    3.47061534570490    8.17931703086652
H         4.59936365324978    4.07355393193263    8.39223075987905
H         3.55155341079750    2.81310708201187    9.02799598513579
H         2.86619042770033    4.14004603552742    8.09263896723142
C         2.62014378153159    0.19981292752821    7.69631092903384
H         3.68038298147167    0.16845388475256    7.97516622262692
C         2.27561807249307   -1.18600421694897    7.14307211804313
H         2.57614874950114   -1.95185351873975    7.85632046004514
H         2.82024717414775   -1.37023582368576    6.20483490425866
H         1.20835933096350   -1.30278026567887    6.95720776271195
C         1.78728410908945    0.54585937327244    8.93150396025092
H         0.79649363513699    0.10016480782477    8.87986035402918
H         1.66454541215857    1.62031647985898    9.03817043465247
H         2.27257507257553    0.16123616139753    9.82630136350353

