44
CSD_code = ODIXEE | q = 0 | S = 0 | Stoichiometry = C15H20F6IrNO | MND = 6
Ir       -2.65697501330577    8.20434827419117    6.72496713926324
O        -3.20616010983928    7.08390662385064    5.00857887061797
N        -0.71667053304021    7.88941735684903    6.04932694338487
C         0.21177763603151    8.97752395534239    5.83020524651628
H        -0.27815247989952    9.91885273920756    6.06087568325321
H         0.54062702081170    9.00043679787476    4.78872122556028
H         1.09292995155131    8.86716199240287    6.46839745075958
C        -0.37732174186594    6.71184505854868    5.67394967402233
C         0.95373557141960    6.38858168845887    5.07658560522417
H         1.75161751104406    6.70864832424129    5.74738352983988
H         1.08462257790857    6.92377791303933    4.13522000773591
H         1.05316591438055    5.32528267917496    4.88418798806095
C        -1.39311512894929    5.62310144149779    5.77993570573177
H        -1.84501441057042    5.61890151288226    6.77555969714968
H        -0.97161118825193    4.64212068745533    5.56253508875715
C        -2.56593250208975    5.94415428833879    4.78365728391638
C        -1.98672154778623    5.93481335985613    3.33717514499715
C        -3.55931438476300    4.74743393103943    4.89195197379928
C        -2.27281077327909    9.71687659732955    8.16690103319882
H        -1.34703781677722   10.26060723739783    7.99124835124295
C        -2.14441277802268    8.43277902096447    8.74640542689815
H        -1.13164292254003    8.09242590922948    8.96710212783730
C        -3.17654557381045    7.81418032405589    9.66779265774347
H        -3.14595960014642    8.31817350835133   10.63900266289525
H        -2.89336622577615    6.77402109346849    9.83653451827434
C        -4.60409676427642    7.85766495833100    9.08926773275023
H        -5.13516544207087    8.73718268332665    9.45316086207085
H        -5.15180901674593    6.98045313675452    9.43454937098149
C        -4.59916922460715    7.87437050533108    7.57514577437019
H        -4.99178165496564    6.97798551378960    7.10523294781740
C        -4.60808240583880    9.04669794733331    6.82509629594546
H        -5.01927472250386    8.99196918268409    5.81994777765123
C        -4.59028155893815   10.43659718365089    7.42216884353872
H        -5.55982364484414   10.64711049200267    7.88343844541623
H        -4.45540477469001   11.15084357991278    6.60940563320957
C        -3.45803068536876   10.62577189926392    8.45126372228839
H        -3.82244639530228   10.43151232690667    9.46009416604164
H        -3.12665561341849   11.66459977298991    8.42308552109716
F        -1.30462879496024    7.06545923648953    3.09437028840341
F        -1.11169795943158    4.93242122782665    3.11147109814878
F        -2.92068955465486    5.84085676517241    2.39373040211096
F        -3.01210214110178    3.56966107783068    4.53536250662970
F        -4.65571420000238    4.90612994321470    4.15664329914573
F        -3.96895689871305    4.59344025213718    6.16236427569985

