75
CSD_code = ODIZUX | q = 0 | S = 0 | Stoichiometry = C38H28Cl4N2O2Zn | MND = 4
Zn       -5.31847872259057  -11.34564107945155   -6.06875443305031
Cl       -5.27039508004316  -11.89454427276976   -1.47849219084638
Cl       -4.14186410392484   -6.68687362626749   -0.78410232038342
Cl       -9.46047005678703  -12.40076818965644   -7.90893378796968
Cl       -7.14170485583287  -15.79455251671098  -11.35560910851307
O        -5.35640092346283  -11.22854169270399   -4.24556086121025
O        -6.80514679006102  -12.01146367122928   -6.93026503701306
N        -4.90441335432803   -9.45785657848442   -6.41945606917684
N        -4.08673873510212  -12.71281229237842   -6.74674479935210
C        -5.07563694777411  -10.19239778469000   -3.54571898331147
C        -5.00452054377400  -10.32177473846566   -2.12572988761077
C        -4.72438504189178   -9.27556592182865   -1.28679840956331
H        -4.67996843390264   -9.42519856418384   -0.21981713287906
C        -4.49359799374337   -8.01226828501010   -1.83747414379365
C        -4.53127137644769   -7.82594206126504   -3.19413948921006
H        -4.33673490987077   -6.84722696854445   -3.60638703129873
C        -4.80527927097517   -8.89445436619440   -4.06924119666537
C        -4.76259215458923   -8.60876216871578   -5.46775843789395
H        -4.56470165415654   -7.56299724323660   -5.70503705229171
C        -4.83889877453997   -9.06581732980919   -7.81756827243486
H        -4.05707398482181   -9.69777963360366   -8.24615665503044
C        -4.47472343012171   -7.61046374504958   -8.11688909928549
H        -3.50786145246891   -7.35538738708241   -7.68770522860373
H        -5.23422385117546   -6.92177319876546   -7.75447317317981
H        -4.40801674672251   -7.49797783812962   -9.19652495187941
C        -6.17522783247647   -9.40052705622167   -8.45358814517619
C        -7.30037981273568   -8.83811627867336   -7.90103068159305
H        -7.20950953050704   -8.22462478882886   -7.01531198836750
C        -8.56908071493073   -9.03925820914844   -8.45459109072227
H        -9.42947039299743   -8.58126819479180   -7.99056568556169
C        -8.70870762032206   -9.81492653312992   -9.56900568946092
H        -9.68111290608505   -9.98062931997602  -10.00885538989325
C        -7.58715881066606  -10.43413067820756  -10.15581061048599
C        -7.73637682049922  -11.26718700939147  -11.28470136063265
H        -8.72816954017059  -11.40722848016122  -11.68956939894028
C        -6.66123410419366  -11.88922387814142  -11.84972687352013
H        -6.78386426807086  -12.53155948985883  -12.70857465441121
C        -5.38435337032870  -11.69415935086156  -11.30611855850837
H        -4.53646474018677  -12.18911534345864  -11.75694337182368
C        -5.20465288946307  -10.88722614335896  -10.21773457176824
H        -4.20623182837907  -10.75843418960602   -9.82817885443841
C        -6.29254642999137  -10.23232782084484   -9.59885431748573
C        -6.82173634541310  -12.88444701736460   -7.86285491376813
C        -8.06110707196196  -13.19640131398337   -8.50300116654469
C        -8.16502124916736  -14.07182695782814   -9.54977482802762
H        -9.12105815324946  -14.26079831220311  -10.01109826608372
C        -7.01464401749698  -14.71928731818241  -10.01096101632948
C        -5.80682304634090  -14.51138020034872   -9.40347895234612
H        -4.93056303588867  -15.03791611196440   -9.75089252119420
C        -5.68307809003623  -13.61096452136937   -8.32650600793484
C        -4.41198630529910  -13.51705418762676   -7.69560131129981
H        -3.66167466580374  -14.23356223905222   -8.05130007656986
C        -2.79081804415766  -12.87133005544311   -6.10303555630845
H        -2.08462397069732  -13.36465826106557   -6.78995042956007
C        -2.98833074635322  -13.79078017401745   -4.89614613172443
H        -3.77838470255701  -13.40595582352576   -4.25568533467497
H        -2.06437209036952  -13.88139976582943   -4.33108930903122
H        -3.28510578267095  -14.77857623577754   -5.24362338152019
C        -2.27008059969827  -11.49196445587625   -5.75722471491262
C        -2.21620071474824  -11.04648364666001   -4.46031223154695
H        -2.51646004296865  -11.68608186659955   -3.64779731040429
C        -1.76891688422045   -9.75519955821857   -4.14572544766532
H        -1.75114911675316   -9.44421902314766   -3.11204121980792
C        -1.37139270902907   -8.90451269333848   -5.13455638916004
H        -1.03074056112214   -7.90585726685638   -4.90214144300847
C        -1.38857465233847   -9.32047254295713   -6.48175150650015
C        -0.96047016503462   -8.45597242004220   -7.51145781877828
H        -0.61806301767968   -7.46666652646851   -7.24176702143263
C        -0.96577901211633   -8.85617217001947   -8.81742270192485
H        -0.63409326724582   -8.18980829821065   -9.59943832033642
C        -1.40090517186922  -10.14744292110740   -9.14494117054746
H        -1.39722151880953  -10.46156856007659  -10.17875745566855
C        -1.82705966996421  -11.00763648734384   -8.16938014572147
H        -2.15973038224146  -11.99317519521546   -8.45575885036135
C        -1.83989439558929  -10.62934395339649   -6.80732805404843

