75
CSD_code = ODIZIL | q = 0 | S = 0 | Stoichiometry = C38H28Cl4N2NiO2 | MND = 4
Ni        5.08984504104852    4.70071579001587    3.04298656448448
Cl        1.86837191467851    3.19662715342995    0.01579769474390
Cl        5.52532118125799    2.44646149883436   -3.83901136160374
Cl        8.31061871966326    6.20669795587755    6.07031230493442
Cl        4.57837745016258    7.96202081509113    9.50330249195651
O         4.16684858463432    4.00767200646401    1.61146841587357
O         6.01602767731918    5.35038976363188    4.49291708754403
N         6.78221039678634    4.51000507162815    2.04668420265010
N         3.38466810418032    5.06326978532942    3.96701597333528
C         5.84330202057925    3.68981775600152   -0.04623325823862
C         4.50140469918660    3.67472893366026    0.42506969152040
C         3.51215583320503    3.24804617405818   -0.50820128537377
C         3.82235277153403    2.87898116872089   -1.79103450548014
C         5.15391721742490    2.91257449554509   -2.21616054281124
C         6.15080864264035    3.30544319776967   -1.36126050723649
C         6.88855773702052    4.09229599270721    0.83137070038751
C         8.06492028549483    4.85766156347840    2.68371147608398
C         8.49888207643561    6.23100280071928    2.16982633445440
C         9.07361635490704    3.74177802919666    2.51192401111544
C        10.24400406920942    3.91788449489204    1.81955053159669
C        11.17807364073068    2.87985662987459    1.68453816077033
C        10.93816207435644    1.66250830234719    2.25025959580169
C         9.75074687212764    1.43362198387482    2.97667890231143
C         9.50092293075839    0.18250097649364    3.57804013982491
C         8.35887351978027   -0.03635007951031    4.29375782509638
C         7.41271128230772    0.98971448522675    4.42491666750233
C         7.61785286783014    2.20987723912434    3.84287614281678
C         8.79544174604168    2.47816807026661    3.10920275547957
C         4.30757738628203    6.09542240342950    5.97140063996639
C         5.66375010872521    5.91865413399516    5.58072466907822
C         6.64804930936318    6.40825958040691    6.48799564939596
C         6.31935441645480    7.02294655300019    7.66790425373315
C         4.97353622822175    7.18102870627195    8.01241991492622
C         3.98175932629771    6.72276400484397    7.18462416962610
C         3.26773907005077    5.62178231955407    5.12337806444464
C         2.10371857626997    4.69332167786067    3.33909585734698
C         1.47654134574462    5.95690155941745    2.74876533953451
C         1.23380250060873    3.91541112752884    4.30355835551162
C         0.01611083020683    4.38319407580417    4.72618034219096
C        -0.78744272018969    3.64259082564602    5.60593813164819
C        -0.36889773446068    2.42653139038736    6.05931526587102
C         0.87394293111582    1.90004662904458    5.64922403719086
C         1.30817848718306    0.63631769127220    6.10064414232999
C         2.50399498213085    0.11851866833962    5.69282197150359
C         3.32077567499522    0.85501034755543    4.82353973744725
C         2.93573267813063    2.08915320464622    4.37824323807031
C         1.69756304041262    2.64952935957979    4.76540785671187
H         3.04507604896411    2.56404160744004   -2.46908894819089
H         7.17744952933808    3.32422399891560   -1.69303402369826
H         7.88965103892959    4.01875464692544    0.40228761332732
H         7.88330295223914    4.96864957719732    3.75689987466079
H         9.40359868229066    6.55247721726280    2.67835773752367
H         8.66481974828845    6.22818253109907    1.09418627551994
H         7.70855262740949    6.94627120753804    2.39139745812359
H        10.47512137161705    4.86957350626925    1.36724113154875
H        12.08742318823647    3.05996931446509    1.13033226847461
H        11.65274302380273    0.85772858328774    2.15587937083656
H        10.23836625053219   -0.59934664244075    3.46418181034746
H         8.17759818717628   -0.99379963855738    4.75969761634075
H         6.51558175214484    0.81347394369001    4.99971233352737
H         6.85333331466808    2.97178618142783    3.95578128404097
H         7.09312467747465    7.38257056026695    8.32748860305565
H         2.94479686595444    6.84239957804344    7.45812993233567
H         2.26253644922349    5.75005655748868    5.52936536952675
H         2.32587317350776    4.03178036030049    2.49647780132906
H         1.25603389314456    6.69704455781645    3.51563787116978
H         2.18270890136300    6.39448120888903    2.04505022739164
H         0.56690633581556    5.70695599742915    2.20973674616140
H        -0.35476689020186    5.33557161927683    4.38100383737008
H        -1.73976015487735    4.04760780257636    5.91506106384272
H        -0.98167052565783    1.84642634917843    6.73403220659339
H         0.66895335079775    0.08312107433804    6.77405294148112
H         2.82692211551278   -0.85375597377909    6.03502780058385
H         4.26131287011386    0.43630374899606    4.49740218231439
H         3.60432907336749    2.63269421131649    3.71851376839446

