61
CSD_code = ODOCIU | q = 0 | S = 0 | Stoichiometry = C34H18N8Zn | MND = 4
C        -0.36309936039665   -0.94622571706247    1.76480390938425
H        -1.36117446832199   -1.22084030266193    1.47153138853332
C         0.84590969755051   -1.49771626645857    1.31016927402932
H         0.95120996973837   -2.28884295874957    0.59409517706927
C         1.84424442790120   -0.82306424274752    1.96721134396028
H         2.90111436762208   -0.98597880319786    1.88084109259375
C         1.20962689021300    0.13366004861215    2.80934215003653
C         1.84052037154219    1.03471004634925    3.67023650638425
C         1.23266429212426    1.94717320245571    4.53578600069604
C         1.89154705030400    2.89531435676707    5.36885931927498
H         2.95182605670793    3.04095664165356    5.44380538377914
C         0.91121481364845    3.58854831778326    6.03370312254980
H         1.03691864678194    4.38001944748445    6.74607598998758
C        -0.31130078694707    3.05583637498175    5.59313923797237
H        -1.30166103960044    3.34768568622500    5.89581262788347
C         3.32101533883322    1.02072554053307    3.66508128035461
C         4.02107519355390    0.64261802739622    4.80474637061449
H         3.48485729353553    0.35261693293095    5.69612844758790
C         5.41566603706570    0.62494493391556    4.79747052522123
C         6.12367984968344    0.99128022829394    3.65603382580318
H         7.20349067917013    0.97979937022059    3.65256962656173
C         5.41615771484237    1.37271883158848    2.51930938226444
C         4.02139193722034    1.38434192098566    2.52096111157383
H         3.48567818013210    1.68586991818645    1.63311173099878
C         6.11777721937190    0.23285420585630    5.96416095761608
C         6.11858617558077    1.74979881516095    1.34793718716852
N        -0.15736239128153    0.01586214292570    2.65440838628674
N        -0.13057360309324    2.08805238533317    4.70420929596990
N         6.68528462129834   -0.08138881381242    6.90781642946659
N         6.68478862988446    2.05202092859583    0.39951098166196
Zn       -1.42422801616052    1.05546818101008    3.69251897594214
C        -2.48577180527456   -0.93653396648377    5.62915018323581
H        -1.48771396408554   -1.20753845014393    5.92581820636731
C        -3.69447279560214   -1.48945043154584    6.08272353045789
H        -3.79961374926045   -2.27844142440739    6.80115845341023
C        -4.69288631216452   -0.81938616246127    5.42109967275569
H        -5.74943980375128   -0.98542822197874    5.50516787088434
C        -4.05868900421534    0.13630392349189    4.57742531591910
C        -4.68962113442476    1.03422610959589    3.71302498267615
C        -4.08104905551652    1.94390926750266    2.84479132601167
C        -4.73867727550153    2.89116171307834    2.00963794437979
H        -5.79863084862140    3.03948088730217    1.93547555471222
C        -3.75755736221601    3.58041717704919    1.34180839812516
H        -3.88233015325036    4.37003503712280    0.62719348964091
C        -2.53575362698118    3.04653549709037    1.78283861152399
H        -1.54504549999553    3.33516533444154    1.47820096223502
C        -6.16989799490757    1.02023188970152    3.71739645110487
C        -6.86977686079908    0.65262990707798    2.57411533479061
H        -6.33341960616782    0.36977398629645    1.68053751982196
C        -8.26444326163987    0.63592749014114    2.58041797577180
C        -8.97288211110458    0.99166055627591    3.72481228515755
H       -10.05269512594631    0.98069739488259    3.72773528024438
C        -8.26568389714981    1.36196023147137    4.86544715772702
C        -6.87097625775980    1.37377944181123    4.86438090513833
H        -6.33571914655982    1.66776677452935    5.75502923989896
C        -8.96569822288650    0.25645255248431    1.40910010232054
C        -8.96870415972390    1.72644983563649    6.04048620061178
N        -2.69178343342112    0.02200261705125    4.73575932965886
N        -2.71769591763019    2.08185097732772    2.67492090880558
N        -9.53059267935022   -0.04765751104078    0.46068386910567
N        -9.53582472259659    2.01809818614872    6.99167589827734

