69
CSD_code = ODOCUF | q = 0 | S = 0 | Stoichiometry = C27H36ClCuN3P | MND = 3
Cu        2.94225660117041    1.66293480854711   10.81928948675683
Cl        4.95963306826756    1.63982256887523   11.70381565951333
P         1.13519961940384    0.62397264616240   10.06203110363110
N         2.54824481848469    3.66310333516391   10.22203448512919
N         0.72841407049741    0.68114534160489   12.87036948690066
N         2.87178495373764   -1.24257416451520    9.42423144377077
C        -0.18316519814867    1.89976568734890   10.25225903926532
C         0.09448820345843    3.24491669945614    9.96839369642151
C        -0.88408382062195    4.20150633454170   10.20705147070652
H        -0.67131650647416    5.23965775079475    9.98991378727858
C        -2.12803572457581    3.85634234949369   10.70504501225480
H        -2.86967009439554    4.62032663577523   10.88561404353364
C        -2.41545249617498    2.52590242461670   10.94871871494373
H        -3.39061838971492    2.23588258529959   11.31243850187830
C        -1.44812310980979    1.56392303945882   10.72351555429730
H        -1.68080402736052    0.52545315404362   10.90331788009548
C         1.38665180877353    3.69114612228970    9.33063777507757
H         1.60808426666167    3.03382149964884    8.48243291810549
H         1.24794375155053    4.71281572472339    8.93809459527232
C         2.34480033814680    4.52088349378037   11.38023840766103
H         2.23914044586493    5.57444102967393   11.08671856011411
H         3.19898357897658    4.42365715668646   12.04803920735367
H         1.44564873155248    4.21016782811769   11.90878037559070
C         3.74153631916157    4.08450266141574    9.49819514219887
H         3.67076045572687    5.13258898700033    9.17689450198987
H         3.87936079984930    3.45634833935624    8.61858925716231
H         4.60918073589254    3.96537078538440   10.14514152264755
C         0.25737240529790   -0.90808809572292   10.51207413953614
C         0.48388582465698   -1.44677660832996   11.78125905907471
C        -0.09557607694330   -2.65963593134225   12.11999955179038
H         0.08195879218576   -3.07848540094872   13.10098544980606
C        -0.90052723950688   -3.33538571624665   11.21769888081870
H        -1.34534855605501   -4.28025509619541   11.49330698382251
C        -1.14308739444585   -2.78983596328488    9.96896466671907
H        -1.78271593036903   -3.30468329698718    9.26688025225334
C        -0.56091720796260   -1.58501134913416    9.61512756100923
H        -0.74871335007246   -1.16757274301707    8.63639589119405
C         1.30069428531172   -0.65525387276526   12.75785701053903
H         1.35153076879528   -1.16729279985119   13.73321784647856
H         2.31683793694433   -0.53907697173211   12.36971037280420
C         1.62631537775449    1.57857186276009   13.57325106383169
H         1.84511574699546    1.23006979173907   14.59284472997796
H         1.16662693731795    2.56388770315212   13.63687163723637
H         2.56621372251282    1.66399115767483   13.02653363442682
C        -0.54155457806166    0.62835499163238   13.57297938116767
H        -1.01878648116950    1.60670773584826   13.53092656681360
H        -0.41129495942454    0.34586255176217   14.62895173479710
H        -1.19757511904012   -0.10195936646469   13.10373152554333
C         1.11661436584837    0.56987619970969    8.22442119853879
C         2.27984302471837    0.15516775261420    7.56967761839488
C         2.34539138356433    0.18409204077990    6.18570673076891
H         3.25012889601209   -0.13685381059948    5.68874639440893
C         1.26228232983660    0.61775639764545    5.44014613710235
H         1.32055812153806    0.63589391709337    4.36198401674493
C         0.10292337818551    1.01931120627501    6.08165389109117
H        -0.74972032549558    1.34879023702144    5.50596622462154
C         0.03335220521173    1.00314640233998    7.46370970663239
H        -0.87096477720209    1.33455238860511    7.95532627579290
C         3.41175496790971   -0.34401980390195    8.41270805146407
H         4.18377916567695   -0.82861136282198    7.79493989100752
H         3.87381786672781    0.50326172494291    8.94032858415612
C         2.38847039049513   -2.46352272907481    8.80190274423445
H         1.63197924673369   -2.22729461289591    8.05559700069499
H         1.94072548946089   -3.10425656834871    9.55980615501279
H         3.20212285156349   -3.01604951017574    8.31072802363439
C         3.88553484402680   -1.57345986656792   10.41232885055113
H         3.45438288885975   -2.23826689528772   11.15915343058337
H         4.23826840477361   -0.66451576618239   10.89935538782847
H         4.74675717694764   -2.07695474845387    9.95374411753978

