81
CSD_code = ODODER | q = 0 | S = 0 | Stoichiometry = C38H39NNiP2 | MND = 4
Ni        0.38095995816948    2.14785759025008    5.15846794755430
P         0.11740551969294    1.41911228800528    3.18291043677339
P         0.98201139700596    2.74283807709273    7.13135429924087
N         1.79579621096826    0.76227968813536    5.28349398270618
C        -0.98983453092513    3.41487069948565    4.92373124778054
C        -2.27964137185283    3.06911567172074    5.33427813509371
H        -2.46317246661553    2.11387086954807    5.81605726102628
C        -3.34753416827960    3.92668642315701    5.13077875829632
H        -4.33638852200975    3.63716313255541    5.45885599660258
C        -3.15476434288260    5.14599996016040    4.50562158212040
H        -3.98888383331592    5.81367054035666    4.34435214475898
C        -1.88656296181154    5.49913638706543    4.08134375215519
H        -1.72593781382171    6.44596958826726    3.58378600887720
C        -0.81532849516356    4.64303902611614    4.28267195317695
H         0.16334317611371    4.94394033126035    3.92516621936890
C        -1.44087028416492    1.17277885135800    2.30290320601997
C        -2.14475391865333   -0.02255112266376    2.40933413187524
H        -1.71196198341480   -0.85060749834605    2.95394187911055
C        -3.38980863199216   -0.14711727362089    1.82011044905513
H        -3.92930003490551   -1.08024583262461    1.89561946225584
C        -3.94793350928859    0.92325731860467    1.14062293479476
H        -4.92112605776450    0.82342107767147    0.68278583291812
C        -3.26366716607771    2.12607922872812    1.05911400568103
H        -3.70645973400010    2.96625043794870    0.54433826044252
C        -2.01861209547311    2.25524184408938    1.64321623604178
H        -1.48641467009438    3.19586607112981    1.59933023919475
C         1.16905487912200    2.37845581071915    2.05402503005328
C         2.12231614132698    3.18795815817796    2.66605118268973
H         2.13371860311126    3.24726521792213    3.75625387702422
C         3.02831513412353    3.89766538267049    1.90169191739033
H         3.76664785801497    4.52734254890364    2.37714164349000
C         2.98375087771503    3.79980947094649    0.51955810772603
H         3.68749477516352    4.35525034445267   -0.08307275451166
C         2.03895757787875    2.99127412132912   -0.09268800525595
H         2.01130394478985    2.91734951404212   -1.17036430622305
C         1.13297664851228    2.27515052834807    0.66926250845847
H         0.39562344200650    1.64338230530613    0.19383860160882
C         0.98765845928580   -0.16603384250243    3.25194877484738
C         0.93744736248113   -1.15431039979646    2.28545292209046
H         0.35074530639804   -1.00003026219459    1.38951590020349
C         1.62453888987028   -2.33926200574973    2.48111390446939
H         1.59048432379519   -3.11973239146351    1.73607432001915
C         2.33061745074567   -2.52501118432832    3.66275397271587
H         2.82993115132006   -3.46710764619615    3.84160838553361
C         2.40512535000517   -1.53800645040413    4.62193401450591
H         2.94006280612150   -1.73206925473135    5.53884348073324
C         1.77307891346921   -0.29827419581492    4.42407409793739
C         2.73210652217987    0.93390934407826    6.25316939958407
C         4.05675695235492    0.28161610400573    6.17584895903428
C         4.78589748902255    0.34442041414182    4.99038851502019
H         4.35555618321307    0.83034548103800    4.12568112528331
C         6.05060952210016   -0.20702019500907    4.92034306715236
H         6.60786175423947   -0.15434885683353    3.99618500076335
C         6.60356316833546   -0.82662732103166    6.02928089030221
H         7.59015369566760   -1.26259599683864    5.97081622296154
C         5.88866554657528   -0.88425053494160    7.21373012706847
H         6.31732812373186   -1.36460607407882    8.08167988990559
C         4.62476615457052   -0.32809960383738    7.28969989578307
H         4.06204293288434   -0.38122365197029    8.21129156471460
C         2.51137729602317    1.83683221499305    7.25494755808495
H         3.25892873978318    2.07109237428407    7.99814705358029
C         1.41772598470109    4.43725340692676    7.74237026425543
H         1.95952105466244    4.31748316314123    8.68918710569407
C         2.34518108845555    5.06840399755854    6.70845624188879
H         1.81632428273339    5.17808388641650    5.76252144345995
H         3.21952202039207    4.43910188701795    6.54453988585310
H         2.68025812578616    6.05175273144406    7.03511490690600
C         0.17209033328422    5.28964084121140    7.95287413669963
H         0.45305198330386    6.31465575061388    8.19133198650036
H        -0.43619886401163    4.90609747800724    8.76883685478218
H        -0.43202600655789    5.29852590666819    7.04668720734078
C        -0.15534616878184    2.02491866817515    8.42415875478123
H        -1.07315328344401    2.62431683621493    8.41140123720091
C        -0.48021704753091    0.61254637751732    7.94019042390396
H         0.39660649908705   -0.02717825873068    8.03348856472152
H        -0.76774808907976    0.63735832381765    6.88091344890366
H        -1.29488791536593    0.17238264246049    8.51355964321278
C         0.44351893306015    2.01377005946760    9.82388204655356
H        -0.22317398498871    1.49601614902682   10.51267571720608
H         0.59901644071960    3.02343172579670   10.19774661235637
H         1.39991096838053    1.49380558382691    9.81975031009421

