39
CSD_code = ODOGIX | q = 0 | S = 0 | Stoichiometry = C13H18ClN5PdS | MND = 4
Pd        2.90081530592029    8.21152493066481    6.03038534025669
Cl        3.28078065258938    9.83731100763577    7.47719945669171
S         0.80057510182156    7.62522978671965    6.71215373002467
N         4.74000180069903    8.34017984030908    5.05947002788481
N         2.65589894414684    6.81409336946342    4.71486030656278
N         1.53061677025882    6.08797360177813    4.60864999678660
N        -0.57432696952673    5.73911088259555    5.43467371554433
N         3.59014762452840    5.57522892062743    2.95392738388919
H         2.65457814898260    5.19811260996537    2.87522986038244
H         4.05666954572155    5.73155035961361    2.07528640071569
C         5.76295518314685    9.14241908726661    5.31027408231741
H         5.61485440675291    9.85726255175606    6.11242523491550
C         6.94995022863004    9.07399900847713    4.59625128189279
H         7.76110482632740    9.74394550297158    4.82851833149811
C         7.06748041130753    8.12358369202177    3.58945195272281
H         7.98108214447973    8.03750582915625    3.02073024079025
C         6.00265209975001    7.28445093445845    3.32426676405418
H         6.07525634529141    6.52867775349213    2.55859624108717
C         4.82921032078017    7.41078232584533    4.07528362009730
C         3.64889738507633    6.59073470143074    3.88773206202951
C         0.59849893019474    6.38900825500119    5.48829205715138
C        -1.56773785330745    5.90067218018465    6.46732488715671
H        -2.50986213901302    5.52382777938526    6.06442761918303
H        -1.68587988344343    6.96749536057518    6.67315702273694
C        -1.21820297649978    5.16592128733108    7.77475971202422
H        -0.70281226523449    5.85325936765859    8.44570214529124
H        -2.15052197507404    4.86516911249374    8.25546118449755
C        -0.32164110762913    3.94226337920569    7.57551321516839
H        -0.28072344349128    3.40920619252439    8.52742458803393
H         0.69445494142947    4.27421148403853    7.35177383681148
C        -0.78423222237054    2.98052850836337    6.47539853634191
H        -1.87482475382056    2.97155638432370    6.42261680799199
H        -0.46241661522176    1.96955743994746    6.73467255654322
C        -0.19709356214311    3.31826537013943    5.10454603559592
H        -0.42075218444870    2.51397946132692    4.40073391402218
H         0.88796207974803    3.39973317659423    5.19122566487375
C        -0.74005235720481    4.62664779255839    4.52688618446748
H        -0.21491857000373    4.86502565329185    3.59976480021680
H        -1.80724431914421    4.52529511881023    4.31245320174806

