46
CSD_code = ODOHEU | q = 0 | S = 0 | Stoichiometry = C21H21I2PPt | MND = 5
Pt        4.55849358860917    3.41494493373763    7.28444220289330
I         6.09605105285502    5.40759135780799    7.92241740482176
I         5.27055987261908    2.02856981553276    9.39345579682810
P         3.87271813210838    4.79797070310171    5.59745068734157
C         2.71655745791151    3.83758315902276    4.48309890228293
H         2.41341280748947    4.47236611789337    3.64488956219007
C         1.53130750513257    3.38361396879989    5.27205731008849
H         0.55322142041653    3.64719927716427    4.89380061223647
C         1.62642934291426    2.66999453931301    6.40127456800066
H         0.71437845818386    2.44132577125940    6.93840999114548
C         2.82863394715705    2.11028388879900    6.98085892416678
H         2.65717467864406    1.60618884917398    7.93120526469413
C         3.92325298179813    1.63756750531383    6.21225509688857
H         4.49590508306261    0.81540530618216    6.64146845965606
C         3.96212381660811    1.68521433419314    4.76810032123576
H         4.48225574248250    0.85956236940339    4.29832958828490
C         3.39689361294199    2.60803746177662    3.97618483118459
H         3.41821376134473    2.47254556848491    2.90330360598019
C         2.92131996363832    6.19661471563010    6.32347521219374
H         3.61840821509703    7.05069741215220    6.36943649020850
C         1.66702486156430    6.64327328381342    5.64122713500786
H         1.18449039347808    5.99457042614654    4.92613919856768
C         1.14187204037456    7.83872884070170    5.93834934215365
H         0.29368151842544    8.19819380903833    5.36979115113328
C         1.59671128883059    8.68978740363576    7.00134600884844
H         1.41666684337732    9.74951657083970    6.87643942678106
C         2.05725683954181    8.24957855844025    8.19387556117319
H         2.23516434438232    8.97255880499305    8.97832536779352
C         2.16392333031285    6.86853297809503    8.56900301782428
H         1.96193036024612    6.63542255191002    9.60560127058658
C         2.47251246596176    5.88049045918559    7.72167282255703
H         2.42026444199385    4.83851597176831    8.03691378721240
C         5.01854911201381    5.67077256672232    4.45638583751847
H         5.68520860036219    6.28868333204390    5.07910214908886
C         5.86062753467669    4.73971227781134    3.63736723950679
H         5.58129113020515    3.69620897684853    3.58762638223490
C         6.94697817584655    5.19193563328901    3.00328091450399
H         7.59967017714082    4.48702127771888    2.50540147782214
C         7.32106375048093    6.57630612313779    2.90680322438900
H         8.37617988233698    6.77539465682382    2.77538092607726
C         6.45423953173917    7.60654945106958    2.81113281420511
H         6.84635904515792    8.59349835004935    2.60372992307728
C         5.02208435087105    7.48303134410664    2.79524035151478
H         4.49179639240867    8.18702307749032    2.16675902080352
C         4.32506297368421    6.56640394539354    3.47487225355857
H         3.25567917356769    6.48211227418473    3.34011856373833

