80
CSD_code = ODOLIF | q = 0 | S = 0 | Stoichiometry = C40H35BO2PV | MND = 11
V         1.38236297322336   11.58912184364772   14.66432202416668
P         3.87017332432525   10.16893292175178   13.13041849399208
O         4.98968327649407   11.08604186285395   12.73362034304260
O         2.60192704351477   10.84439808368587   13.64676824857992
C         5.61895279144384   13.42048450397226   13.58150488830849
C         7.73760202949143   11.25958399606100   11.99515249974879
H         7.45127644053140   10.66369664200284   12.85187366891992
C         4.57620361480209    9.09755766964676   14.42763313718800
C         6.86069899414874   12.23415378558792   11.52461124833605
C         4.80843176997769   13.25916028718246   14.70271917768176
H         4.05181941087650   12.47822440978568   14.71057199064696
C         3.48506064468109   12.30404967909255   10.52133954182191
H         3.55909111184438   11.22764065684783   10.62309294027933
C         4.34596586757859   13.11731539434512   11.25207599350700
C         9.35180419889234   11.78699951477802   10.30239213402807
H        10.31027622636828   11.61502624836147    9.83203335676193
C         3.33400247284039    9.06110441092268   11.79404453192844
C         1.99193181398290    8.74629017207917   11.63615798893426
H         1.26193391259529    9.18728944612593   12.30691838575243
C         4.20718727796350    7.76550304834228   14.54585348527949
H         3.49508354861092    7.34283004279514   13.84864192442270
C         5.50904534312678    9.64281695121459   15.29851010065547
H         5.80219252309931   10.67650349452906   15.17602188809443
C         6.57224547453305   14.43697219657020   13.63376456666442
H         7.22631053980379   14.58306655143453   12.78526474394526
C         8.50004845655217   12.76492641275234    9.81895228782346
H         8.79335594818772   13.36158066807849    8.96544196454299
C         5.88585322240707   15.07213211141521   15.84467605365910
H         5.98960515782075   15.70767806361255   16.71345140461636
C         6.70530825352447   15.25324181014454   14.74289155601775
H         7.45415311901297   16.03374831870034   14.75223691988139
C         2.43416558495773   14.19701009471193    9.49211940307614
H         1.69815647382722   14.61163262070474    8.81762350407851
C         4.29140800011852    8.51595567498152   10.94968949450012
H         5.32818859559448    8.78808316753649   11.08745162749626
C         4.22626031375537   14.49513549941520   11.06035079137114
H         4.87933076135505   15.15777425699334   11.61142393634622
C         3.90157230172094    7.65883606385269    9.93685782327870
H         4.64034456798499    7.23747380676876    9.27175967813551
C         8.96335961472859   11.03180730349795   11.39537957040435
H         9.62195022654420   10.26554503139367   11.78368477325986
C         2.53902848935593   12.82692079812060    9.65686215516983
H         1.88786178171820   12.16293484907364    9.10213929257882
C         7.27283066888216   12.97883125773131   10.42208973853554
H         6.61630402541007   13.74223090190782   10.02779385112882
C         4.75961814794769    6.98368951906721   15.54571031923207
H         4.47406563413473    5.94616024598590   15.63878084255856
C         5.68176461459120    7.53145082216774   16.42305124220401
H         6.11157475083868    6.91934282041540   17.20192512891809
C         3.28761855073898   15.03014651022524   10.19599839922697
H         3.21781779653117   16.10213428055632   10.07078480816472
C         6.05992890241624    8.85877732708642   16.29710380606325
H         6.78615582485504    9.28150280209197   16.97547052629056
C         2.56074339532078    7.34396969370894    9.77508977213583
H         2.25758991003829    6.67530740315097    8.98307543837829
C         1.60710772086156    7.88666213278383   10.62178075323207
H         0.56383989484811    7.63990624239419   10.48931454574759
C         1.59045781919456    9.64960529752916   15.85777163840577
H         1.96937963238361    8.70519160259822   15.49238800225579
C         0.24172716344240   10.06098328792101   15.82558546369897
H        -0.59395984785190    9.46551328357590   15.48161079452375
C         4.93564183072049   14.06630762683183   15.82090915559613
H         4.29015149787806   13.90773885451631   16.67706957472390
C         0.15370626696299   11.27676206935700   16.53483974392438
H        -0.76698134204505   11.74018335931180   16.85567667562399
C         2.33671785221918   10.63234976928425   16.52611391247263
H         3.39085130530409   10.57990776631922   16.76040412889077
B         5.44594919859691   12.50613232695832   12.25926259955352
C         1.44910291895165   11.64999123850044   16.93136331793724
H         1.70273708352899   12.49709124555158   17.55410752020289
C         1.61476619379225   13.37248469918531   13.26461463143110
H         2.52826159854624   13.67073621655187   12.77320445236539
C         0.63065810107645   12.53028101118511   12.72979695163205
H         0.65777740102313   12.07732630328429   11.74845952408377
C         1.17654071232731   13.81409045724859   14.53060972437085
H         1.67451414456790   14.55455876673432   15.14168790969843
C        -0.10986473073615   13.28467467970527   14.74725343779497
H        -0.78827536581290   13.59394463349928   15.52847118904167
C        -0.43011719738264   12.44949728520690   13.65901537684571
H        -1.38171556135925   11.96085590877874   13.49351557120510

