37
CSD_code = ODONON | q = 0 | S = 0 | Stoichiometry = C12H19HgN5 | MND = 4
Hg        9.09073573125493    4.45800084340494    4.85538727048679
N        10.64242257831946    5.55838607438573    6.74557505845106
N         7.75137705368127    6.43263594183487    6.31579811008582
N         8.31811280901482    2.90185746134338    6.11073394882927
N         8.06278268031025    3.04782526775152    7.24640620376712
N         7.79646858839662    3.11374400586158    8.34631952581536
C        10.40811015842787    5.87258719849824    3.80398420843851
C        10.17008784788976    6.41682775326789    2.54464348632144
H         9.34788028506298    6.05725963151446    1.93853712699179
C        10.97946771194913    7.42117133512395    2.03343053278081
H        10.77771057923001    7.82331802779306    1.05134563979422
C        12.03581092397993    7.90524978489087    2.78108110118272
H        12.66714119463069    8.69051724817085    2.39212284673797
C        12.28055727169446    7.37862569188060    4.03657099688914
H        13.10717079139002    7.75462471351648    4.62447456997236
C        11.48046059049902    6.36771712960539    4.55536278382779
C        11.82286253798639    5.79372855815353    5.91335795101880
H        12.31782503275841    4.82780241168275    5.76227901870839
H        12.53852010644241    6.45661051793602    6.42661371515276
C        10.98822004841164    4.72180223752753    7.88713079939256
H        11.76274291719734    5.18907319248660    8.51226521066315
H        11.35518232382153    3.75912212932613    7.53452989250720
H        10.10713143501630    4.54333535953073    8.49876312892377
C        10.06432157064317    6.82817273997553    7.18516650205729
H        10.21383708890342    7.56116877688633    6.39061544287810
H        10.58028637249152    7.19575992696133    8.08597049159186
C         8.57219490347283    6.71397865280589    7.49632586671276
H         8.41953732545007    5.89858792774786    8.20562187752367
H         8.24317440715567    7.65002627755260    7.97685517762873
C         7.62143121089736    7.62082285808953    5.47778099366896
H         7.18697354195448    8.46152386533589    6.03786412292882
H         6.97252967056076    7.39399325080102    4.63337251466782
H         8.59134741386631    7.92094864049255    5.08774710933327
C         6.41714613743188    6.01724574799413    6.74487465522953
H         5.90577986301723    6.81769550729267    7.29747950911905
H         6.48731361131252    5.14259767675075    7.38767134564374
H         5.82044568547677    5.76125563583287    5.87074126427171

