35
CSD_code = ODOPEF | q = 0 | S = 0 | Stoichiometry = C12H19BrHgN2 | MND = 4
Hg        3.09639446848016    4.86394605354215    9.02186736035221
Br        5.44436775880632    3.88926861728424    9.12952641017280
N         3.10868725604336    6.06991433917020   11.43113807268848
N         4.09002177325780    7.48686356925968    8.91422489256006
C         1.02652579759034    5.53691396906751    9.39941760975003
C         0.05789726150760    5.72727921603175    8.41850972618535
H         0.24516213571419    5.41877788540915    7.39779614325256
C        -1.16673748831780    6.30433912513582    8.72198496463949
H        -1.90483725722464    6.43457224582974    7.94409875190268
C        -1.43636260141629    6.71317377394066   10.01397127136293
H        -2.38510414432276    7.16869526650839   10.25707440799183
C        -0.48021848378559    6.53767138863759   10.99807512969509
H        -0.68729746936305    6.85705540969332   12.01073415113484
C         0.74557446914902    5.95250824706189   10.70542026841512
C         1.73910658720202    5.73978218837384   11.82630944889319
H         1.43367295320383    6.32155822125151   12.71104818084765
H         1.72081498662597    4.68036578618590   12.10600533200270
C         4.06115779736277    5.54591575555618   12.40013652919790
H         3.89924654459819    5.97052697103806   13.40129151746308
H         5.07514389252866    5.77543738994576   12.08191990674753
H         3.96493533879945    4.46289933378047   12.45828790251492
C         3.26171689877062    7.51619730611483   11.27491969803286
H         3.48087298053041    7.98879672670745   12.24525364904676
H         2.31536287993652    7.91960309062415   10.91117857373880
C         4.37736723406232    7.88031499666790   10.29534505063741
H         4.55666549822247    8.96645590453181   10.35555857661995
H         5.29307673286468    7.36959896357362   10.59873605806003
C         5.32210745848369    7.54717069674553    8.13071452239639
H         5.75440694949849    8.55726372745384    8.13408683103176
H         5.10960394739769    7.26353241627048    7.10113134033808
H         6.05220883102382    6.84978031212112    8.53637237821911
C         3.10406769190978    8.37976362577104    8.31478114568039
H         3.44367856890691    9.42536472341840    8.33430767042296
H         2.15522297023517    8.30691503735308    8.84137334074393
H         2.93768978171913    8.08747771994039    7.27930318726073

