30
CSD_code = ODOREF | q = 0 | S = 0 | Stoichiometry = C8H11I3N7Rh | MND = 6
Rh       10.28943306417602    1.54032547670740    2.78111105837490
I         7.96077030841352    0.85170283771340    3.99557449761676
I        10.49035746037451   -0.76192720394598    1.38504888599859
I        12.51942036498284    2.64240244259348    1.69268414066031
N         9.38756386178103    4.21781043567093    3.05224394822166
N         9.93918695324404    5.18096721897717    4.90454245664510
N        10.41275871847052    3.92194040512846    4.87940682351135
N         8.92423507925384    3.83510923122547    1.84144102383739
N         8.01248166743923    3.62258396613001   -0.09853809516217
N         8.62873736987184    2.47833074127478    0.24343705218554
N        11.33828502987856    0.63855839487184    4.15110700811909
C        10.09685017817847    3.28730902508538    3.75343927691475
C         9.31394420150295    5.35836306563236    3.78822886688967
H         8.81891060924370    6.25902756448874    3.49336720905093
C        11.16162037491951    3.41295134568799    5.99162575298994
H        10.67263163645615    2.52458999305617    6.39548863744365
H        11.19712618841424    4.19200448512807    6.74932812965024
H        12.17488031203191    3.15728253214559    5.67590475203731
C         9.21244342727996    2.55398531384668    1.43911823244431
C         8.19258960754610    4.44893479404091    0.87591018801289
H         7.82600669862572    5.45259000520051    0.91598298853022
C         8.57475803420190    1.38020511542521   -0.67938080738731
H         9.57908473396887    1.09787215954733   -0.99604689071030
H         7.99300406681822    1.70940022163494   -1.53687539682489
H         8.09956093669417    0.51555933974092   -0.21542647320552
C        11.93968477061900   -0.15771055173660    4.71942735045784
C        12.68523180422899   -1.15353510391195    5.41171118609727
H        12.23486011039978   -1.34824543364686    6.38494582390065
H        13.71631068093925   -0.82415098017520    5.53995516411090
H        12.67057175004451   -2.06873683753949    4.81733720958907

