46
CSD_code = ODOSUY | q = 0 | S = 0 | Stoichiometry = C18H22N2NiOS2 | MND = 4
Ni        5.35650593214833    7.09241575914314    7.71536728427200
S         5.77301183662346    5.26512624216052    6.70907611222544
S         4.14631780338553    7.57640858698467    5.91983354129478
O         8.60293189959356    9.98673305076248    2.88418196070922
N         6.33897530065273    6.68012075475853    9.31602009132796
C         8.56883673411610    2.53539170386136    7.23018616929020
H         8.92677267365821    1.69668249123113    6.65181479148525
C         7.51884243814350    9.43564904225637    3.51492205721283
N         4.72136451862247    8.82730991719303    8.68224165278447
C         7.54917929224692    3.31356567952751    6.74950357298254
H         7.09444105536936    3.09934067716759    5.79447400968617
C         6.25314109617998    9.29766128601676    2.95734857043648
H         6.05036427288998    9.62656346702638    1.95004783183074
C         9.15080313633489    2.82573432392801    8.46795551754896
H         9.95649604601503    2.21449816536904    8.84503069481168
C         7.06153341878261    4.41832120407650    7.47008996041707
C         5.22749398606546    8.72521197877187    3.68823096285945
H         4.24860451376545    8.61402465778910    3.24822658062464
C         8.45139390498761   10.41526065119474    1.55526786382196
H         8.16235372528073    9.59000092511891    0.89577729027230
H         9.42784700488037   10.79127673402810    1.25268438876082
H         7.71349624558601   11.22075786991888    1.47182901084081
C         7.73850316396582    8.99178800974033    4.81994584938049
H         8.72696782273605    9.09748201407046    5.23955345643078
C         8.68653429128664    3.88819812964459    9.19529473939107
H         9.12808666922919    4.11928742181735   10.15537730236598
C         7.20915719228852    5.76619488892144    9.57733633376661
H         7.67613515735651    5.77080997775305   10.56734963380252
C         7.64049287586078    4.70981434613017    8.72645823275833
C         5.44086488091549    8.28634094945962    4.98902936661568
C         5.99395103739463    7.59056764329342   10.39413325929465
H         6.82217687296967    7.69009904877295   11.10932836187230
H         5.13488142548567    7.17875317958043   10.93868071966033
C         4.65629305126444   10.10257378037384    7.96806535970966
H         5.64247099814375   10.37457982024032    7.59404302222848
H         4.29018292634270   10.89870596727598    8.62868997505414
H         3.98448016330239   10.00592545666331    7.11706966278800
C         6.71298266635978    8.43242363338698    5.54615024991155
H         6.89497643787129    8.07467197151552    6.57487149259528
C         5.64257249132384    8.96038501307149    9.81712003655726
H         5.21235348523278    9.60223917982722   10.60117152727680
H         6.56131793840307    9.42892468975356    9.45144445235892
C         3.37079852245052    8.48436317920238    9.14322288649399
H         2.70298693048611    8.44671821554777    8.28309005743158
H         2.99859585612059    9.23448160621418    9.85430761761732
H         3.36163030789524    7.50411670946426    9.62205648917304

