39
CSD_code = ODOWOV | q = 0 | S = 0 | Stoichiometry = C13H21N3OPd | MND = 4
Pd        2.77147937994365    7.20453108671835    4.77988536518349
O         1.59836795262818   10.43101739308878    6.96448094377553
N         1.62206253830654    8.58386420669109    5.64768371681644
H         0.61906877875958    8.51482096896341    5.82697335625225
N         3.94419533493796    5.55518358821576    3.97719573702787
N         1.05757790779434    5.74825092244789    4.42955285059979
C         4.14817475799126    8.64846214801143    5.12193521136025
C         3.65231671232446    9.68883360360006    5.92209140161269
C         4.44695268422420   10.75860687507504    6.30117504974408
H         4.01230949100774   11.52800552754702    6.92285156591227
C         5.76029972347531   10.82629132526683    5.87009694149448
H         6.39178988882417   11.65306345915836    6.16286270607120
C         6.25272100939525    9.83702389606642    5.04000584779351
H         7.26815732898060    9.89593379199981    4.67050507395151
C         5.45496031746217    8.75910057707811    4.66732650866385
H         5.89463760947315    8.02962117920503    3.99431608647254
C         2.19695536234079    9.62193126395739    6.26120362610608
C         4.25609433558910    5.88161173143912    2.58579228852079
H         4.93053061872597    6.73664040099873    2.55134885390764
H         3.34670463030922    6.15469018782566    2.04729095011804
H         4.73328987933121    5.03134849953679    2.07530587161139
C         5.17642956649588    5.25429671448267    4.70647519480949
H         5.66507459834520    4.35612763968471    4.30150289168253
H         4.95062570070480    5.09241592406538    5.76226974681085
H         5.86858714156488    6.09002674415158    4.63867275133725
C         3.07760605318951    4.36911024045457    4.04267061269883
H         3.47657423231739    3.57209127206903    3.39286945024445
H         3.09264516383826    3.99473894622832    5.07055761308025
C         1.63029758985960    4.65888924759960    3.63832068533573
H         1.03884997258005    3.73408053215952    3.75195929794539
H         1.59711823476831    4.94419005742885    2.58285654884895
C         0.69163140290718    5.29356798226052    5.77061693369837
H        -0.02215563765213    4.45647603324639    5.72851977906841
H         0.23536241690090    6.11684847888624    6.32177455121804
H         1.58062485546497    4.97655529940947    6.32240983081133
C        -0.11571397916017    6.29321923283816    3.75279013947011
H         0.17513462675669    6.71532622730772    2.78890666116412
H        -0.54980982209982    7.09192737115929    4.35249285086322
H        -0.88022835860588    5.51907942368062    3.59025450791735

