39
CSD_code = ODOWOT | q = 0 | S = 0 | Stoichiometry = C16H12Cl2N2O6Ru | MND = 6
Ru        5.60733264483862    2.63599077208711    2.25836086696195
Cl        5.54885952492414    4.30268979354043    0.58091582779785
Cl        7.92719812290955    3.12159959682930    2.55421086156728
O         6.65621173977056    0.81083713124252    0.13117983443629
O         2.73942197997097    1.90152438759952    1.80177758821968
O         3.15633365680740    4.74048897717987    2.23166108297044
O         4.01569928755730    6.80110993121869    1.91641575803270
O         5.98656293760694   -1.93782000529120    3.09947753969629
O         4.74860677315342   -0.31044439482993    2.19211966677682
N         5.38527280573799    4.06607158997388    3.69277150605853
N         5.96469769506154    1.50799873467155    3.95424934439543
C         6.18952409343506    1.45697938960091    0.94004475232455
C         3.81328687873743    2.20597632265029    2.01160502871788
C         5.04858534793596    5.33707957680442    3.48609849732804
C         5.53210471760254    6.37412590362621    4.27784495781135
H         5.25463206625400    7.38543729889069    4.02725062385494
C         6.36904276735388    6.07233634446146    5.33788573481253
H         6.78240515873150    6.85448808218831    5.95542287817123
C         6.66385866460950    4.74550420168171    5.59624841581324
H         7.31191590818481    4.48845146476248    6.41719867849393
C         6.16997487604796    3.75735295828718    4.74384166132465
C         6.42246263332711    2.32169249697167    4.92958582501456
C         7.04602260001054    1.80487509657466    6.06609232699212
H         7.40431763147193    2.46690049108691    6.83626694772083
C         7.22107165565300    0.43969084178061    6.19380549453411
H         7.72238619591620    0.02846942290866    7.05568455189359
C         6.73530997153487   -0.38778193846508    5.19505293886181
H         6.83664282096080   -1.45879166765913    5.24775852203655
C         6.10944905165084    0.18552202832291    4.09348076842394
C         4.07078079706930    5.70167478046243    2.39948808691725
C         2.21718084718422    4.97481197073560    1.18685170222551
H         1.77808633699880    5.96856727652149    1.29341592592716
H         1.45933767494751    4.20113038450425    1.27574530895981
H         2.73053179865468    4.90689503666429    0.22539242865265
C         5.53964966265086   -0.68864698101056    3.02382316422443
C         5.49873189253742   -2.83042126250758    2.10100093154312
H         4.41824876171184   -2.94929850594910    2.19781693008118
H         6.00789336097371   -3.77566724991707    2.26784639421715
H         5.72146865952387   -2.44000027820882    1.10671064620796

