40
CSD_code = ODOWIP | q = 1 | S = 0 | Stoichiometry = C13H22N3OPd(1+) | MND = 4
Pd        3.84823322935081    5.38827569640211    9.62876673503708
O         2.27962265090774    6.02252782696348   10.80850510229229
N         1.32332549600333    7.81373832663254   11.73002510857340
H         0.50981492971226    7.26309284821812   11.95677652829251
H         1.32956896524401    8.78625322568216   11.98267304569442
N         5.25491139624422    4.67043383546748    8.30303878924512
N         2.94783103529124    3.40514197667712    9.43753879916832
C         4.53978033735380    7.25606941432471   10.05643920838364
C         3.56810305993966    7.98681013180427   10.78366906185492
C         3.80803532244106    9.29328009422636   11.21139846692050
H         3.05836069720938    9.84158755754799   11.76347163948995
C         5.02159892872115    9.89429812315069   10.94565765714152
H         5.21123455703169   10.90485966404867   11.27163631327133
C         6.00140769509634    9.18185169284585   10.27512566349631
H         6.96254918052421    9.63626025805289   10.08690087732750
C         5.76121835682795    7.88468056750712    9.84079988329419
H         6.57423827609914    7.37739284273418    9.33695988699098
C         2.35024341245921    7.23724618963936   11.10245357411585
C         5.60244760423632    5.59269287690041    7.21488473105596
H         6.13584612760645    6.45792143604134    7.59934300144231
H         4.69312572201146    5.94426055499429    6.72220412493318
H         6.23894052999587    5.09445817578347    6.47467314849956
C         6.46269650581004    4.30795468750505    9.05300349048389
H         7.19643182238825    3.81955204687839    8.40070586343399
H         6.21367110226432    3.63060634955726    9.87220945996418
H         6.91640468317597    5.20119015042195    9.48187077692052
C         4.65683132927889    3.46613426541313    7.68401297294808
H         3.95075040577684    3.79859488345147    6.91702641475815
H         5.43884997534938    2.87717307725143    7.18537874074577
C         3.91874039252184    2.59096406857871    8.69736377154289
H         3.42626066236740    1.76066431812482    8.17146859617577
H         4.63091254223257    2.15864429797520    9.40564186470802
C         2.67186429517498    2.83248217105643   10.75591161558833
H         1.95337985059437    3.46377212353023   11.28006773000883
H         3.59204822407022    2.79480193668244   11.34609897186941
H         2.25860202567494    1.81976450646148   10.67213947984756
C         1.69771491505501    3.56569533943548    8.69192711917595
H         1.21055084349808    2.59695614399706    8.52130552656643
H         1.88547185708708    4.04043735349012    7.72519037411695
H         1.01978105737186    4.20377896455055    9.26213588461762

