37
CSD_code = ODOXUB | q = 0 | S = 0 | Stoichiometry = C16H17PPdS2 | MND = 5
Pd        0.40178801147395    0.57705784561157    5.65298792565561
P        -0.92281689046388    0.59420091951466    3.47734802150179
S         0.96214318675438   -0.10775619738767    3.40389402775859
S        -1.10503194595613    2.20282063613411    4.66888919678345
C         0.16087066291171    1.04701800870382    7.69119687846912
H        -0.45193903506890    0.24263586264782    8.10110364859162
H        -0.12991205109786    2.05124727641269    7.98901934268557
C         1.51252921609566    0.79653004280629    7.37048970356313
C         1.80583772863269   -0.47846177032053    6.84182227602977
H         2.80524779206722   -0.67574321590136    6.46315480310903
H         1.28374777702544   -1.34881284726209    7.24058095437529
C         2.47624446490138    1.94448097659945    7.21283532081459
H         2.84131368406860    2.26946891622151    8.18739700560377
H         3.32985311592527    1.65043009223106    6.59928954240069
H         1.96721988751677    2.79381934221045    6.73543771766963
C        -2.07382071600479   -0.67848334248574    4.14117546769479
C        -1.64356877800631   -1.55946421183611    5.13013256173788
H        -0.57836742519886   -1.59660194609099    5.41569283520962
C        -2.54681977397257   -2.43474914700298    5.70720684761252
H        -2.21538105205201   -3.12546098332383    6.46893644203566
C        -3.87365279870481   -2.42786406114601    5.30568565264657
H        -4.57735535627382   -3.10793720872200    5.76192894696793
C        -4.29853929404940   -1.55186600763948    4.32021109129094
H        -5.33240645711489   -1.54728569394084    4.00825951599669
C        -3.40207044139700   -0.67456760098725    3.73690809372665
H        -3.72670860364395    0.01988149729496    2.97375514538215
C        -1.53534740984304    0.92584494545446    1.79691317341725
C        -2.04618939897465    2.16840716410227    1.45579868106305
H        -2.10417395129017    2.94319663060811    2.20878166437316
C        -2.47523672249145    2.39377817779177    0.15958543936927
H        -2.87721546001142    3.35816920935507   -0.11378223580972
C        -2.38462217458645    1.38460919539803   -0.78511383560538
H        -2.71726439080867    1.56435042620432   -1.79684527052510
C        -1.86335307323071    0.14608981091821   -0.44146538292976
H        -1.78936793646595   -0.63545261728077   -1.18313747671234
C        -1.43471622573720   -0.08671334464295    0.85112945747327
H        -1.01711816497331   -1.04221678024323    1.13989682059218

