27
CSD_code = ODOXAJ | q = 0 | S = 0 | Stoichiometry = C6H8N6NiO4S2 | MND = 6
C        11.94015372310489    4.97972669336096    8.62078298191040
C        12.25895385367594    5.38491695608785    7.16051571433292
H        13.28606668525170    5.46134810439959    6.81056644209474
C        10.37393665498614    6.22255890373700    4.28495989397373
C         8.53104759278367    2.78802911305651    6.12311637952376
C         7.76249280233361    3.36031065738689    7.33982234861148
H         6.95886540588955    2.79877396419167    7.81113728994755
C         7.89880327974842    6.32419120399278    9.26867316875770
N        11.25597183387663    5.59915335324780    6.40294530620478
N         8.14109492160676    4.50339368787054    7.75906958007500
Ni        9.64977683672193    5.15710196692605    7.05462668981836
O        10.70177440000366    4.79735633454985    8.80983236587183
O        12.84632866500074    4.87695482202062    9.41737966289534
O         9.52358907206831    3.50469417654453    5.80105506957806
O         8.14345088490508    1.76333140947833    5.60734299272077
S         8.84106424242183    6.40685629541887    4.88571753436083
S         8.89524501040013    7.30248988873867    8.37736240131640
N        11.42604578820537    5.91454246256960    5.09385441134015
H        12.36964778328614    5.84752152284840    4.71273284422842
N        10.65009277637776    6.45671454409169    2.98874066232626
H        11.52191426952762    6.17359175517486    2.57251400488916
H         9.86267191062836    6.60126275423307    2.37883103988525
N         7.56472818674707    5.07203987922460    8.84830121911234
H         6.91416923003182    4.50120003500888    9.38777241120463
N         7.31305991097099    6.76459030021259   10.39749119843787
H         7.62455028282081    7.65448448204429   10.74958999858442
H         6.86200399662740    6.13566473357972   11.04136638799291

