63
CSD_code = ODOXAI | q = 1 | S = 0 | Stoichiometry = C24H32N3O3Pd(1+) | MND = 4
Pd       10.34461501735445   11.69658173508248    6.52794305212780
C        10.28296155522446    9.75345625291137    7.03535427445977
C        11.22870170811256    8.95329715075211    6.52678723403838
C        12.23965112956824    9.54221748360411    5.60715997912765
C        11.84035214670142   10.18554016315076    4.42338096166384
C        12.79690933147553   10.66954998384815    3.53413313372872
H        12.48295853545054   11.14180805649822    2.61387932863196
C        14.14431343643564   10.55600204644485    3.83022589759778
H        14.87918313839480   10.94628373584741    3.14388623944578
C        14.54424472070684    9.92335491302856    4.99695407678452
H        15.59472731769796    9.82007431396343    5.22028723544553
C        13.60108029138324    9.40745386623283    5.86817099069104
H        13.91091680103279    8.88537893451082    6.76132236381968
C        10.38967801628608   10.30078932739749    4.07281835888713
C         9.15147508570051    9.30922760184902    7.86153996839537
C         7.26203958068831    7.92491754603758    7.94677767998622
H         7.58581352440918    7.32974110843597    8.80284502310783
H         6.69979201791795    7.31015095549512    7.24944762140748
H         6.65493308066964    8.75864111892481    8.30471187298377
C         8.63960050620505    9.59203773838966    2.51551265806600
H         8.01815068061753   10.14799580088212    3.21436563777009
H         8.28687334173603    8.56307798923573    2.45852704084147
H         8.57365802232240   10.04752750623955    1.52680113820200
C        11.37498215539226    7.52148956927487    6.83688622409771
C        11.07626328263138    7.02585965749716    8.10396179637653
H        10.76872175467515    7.70515506958401    8.88542953735263
C        11.19536521301988    5.67527570168661    8.37297941747717
H        10.96318744136389    5.30286532914467    9.35931964305296
C        11.61769825723821    4.80195593014729    7.38420853860124
H        11.70897066517719    3.74781382478674    7.59562596869968
C        11.92935170246802    5.28757220357557    6.12497741892058
H        12.26356941692108    4.61152454770440    5.35241597806496
C        11.81411002697162    6.63766421294540    5.85270912818742
H        12.05419711637420    7.01107510788388    4.86681018785844
C         9.76556138763891   12.67915612768828    9.11059699278181
H        10.01987496237835   13.23665723239558   10.01893906829217
H         9.29156157362595   11.73673054031091    9.39527082172708
H         9.04841355042168   13.25721439228359    8.52211684493526
C        11.83360256633185   11.48367735536214    9.10009333085071
H        12.68580900498657   11.16757340589882    8.49482257556101
H        11.26357872496491   10.60518731589260    9.39779164643007
H        12.20251835428092   11.98411642258744   10.00273007185721
C        11.72490788791656   13.61485086190697    8.02127572039205
H        12.67113086917805   13.32148317386074    7.55186793026573
H        11.96071623927324   14.15398363785696    8.95028696243633
C        10.94886161191080   14.54055294333792    7.08025433260641
H        10.07641194083292   14.94462706745730    7.59889926250566
H        11.58581402909060   15.39013696897722    6.79872525734373
C         9.23813234757374   14.31426804276525    5.37345172335821
H         9.32616279514637   15.36647601543014    5.07531040604903
H         8.45755613670152   14.22291228207393    6.13271565835869
H         8.93576276223453   13.72753865803199    4.50461606260576
C        11.52804766181059   13.82886282726147    4.84615199588659
H        11.74730290770534   14.86017587536162    4.53873654987093
H        11.17580122162504   13.27848530802544    3.97227216942306
H        12.45176399918733   13.36269502047108    5.20236711648120
N        10.00305234275285    9.62247355472360    2.99541960425918
H        10.67915951649211    9.05313840822473    2.50783295147448
N        10.97353278957639   12.38432488700587    8.32735855292978
N        10.50442292189762   13.79552607590787    5.89241823434185
O         9.59946920765419   11.01928858990425    4.70715675054096
O         8.89730404920562    9.74332645958934    8.97036856339355
O         8.39292061922087    8.40590406634931    7.23139723702790

