231
CSD_code = ODOYIQ | q = 0 | S = 0 | Stoichiometry = C78H134PdS6Si12 | MND = 4
Pd        6.66200572281946   -0.00118605054967   12.72624344452934
S         7.37918237439470   -0.08264236115189   14.96832215998002
C         7.48525610914876    1.60210742498529   15.35623275549148
C         8.12100658447045    2.00573214339021   16.53440263123080
H         8.52434275203319    1.24676670361715   17.18676130463626
C         8.22855402274026    3.34199332358741   16.85174415868808
H         8.71674684962519    3.63040698273548   17.77071800367971
C         7.71760668043698    4.31589495017374   16.00219580881661
H         7.80822400161488    5.36249303816451   16.24833783296097
C         7.06336087875810    3.93556355307921   14.84559233366211
H         6.63344559268187    4.67267760456029   14.18228253292485
C         6.94948177793012    2.59291684440652   14.52916285891394
S         5.89764144469911    2.09868794388986   13.17679173327446
C         6.48367204304283    3.09885923632965   11.83451061884212
C         5.55617050086219    3.86622327630656   11.14882322593278
H         4.52564886162727    3.85148457695165   11.46984177199336
C         5.95258979099419    4.62755444028234   10.06501376879603
H         5.22965727338634    5.22265716033171    9.52919790651281
C         7.28239798868167    4.61468927349538    9.67162293211814
H         7.60020248106650    5.20174513040793    8.82257631937854
C         8.21046819592383    3.85058648643871   10.35111908573035
H         9.24108196702323    3.83275288961006   10.03577617257944
C         7.82268057396523    3.07712183411896   11.43874116588375
S         8.93705895000588    2.06099308085380   12.33531454149907
C        10.48452785638305    2.38721374999200   11.50249432811859
C        11.27241340935947    3.44699782220284   11.95935100209980
C        12.47850595025622    3.67674871472563   11.31181009419568
H        13.08656946395400    4.50173814073692   11.64725308156314
C        12.92600068446428    2.87574903818636   10.27168241841891
C        12.11623813904079    1.82738373145497    9.85567379430343
H        12.45059173559647    1.19505450253246    9.05200278756305
C        10.88323909412446    1.56626690479511   10.44289703030378
C        10.88673803855304    4.30469867599298   13.11473682877872
H         9.85690009204865    4.06160907647352   13.39161223238465
C        14.26090228810060    3.14099103509761    9.65595058279473
H        14.67839958633076    4.00558290558226   10.18449654955208
C        10.03988890571670    0.43553670224991    9.95528843485708
H         9.03299360157544    0.54428241648196   10.38247341842318
Si       11.92501020439965    3.75941750118393   14.65058376369998
Si       10.86526084567224    6.18426236713725   12.70062955674097
Si       15.49821484570314    1.71368058420994   10.03934511193157
Si       14.10334772119247    3.75165504984489    7.83595864366538
Si       10.68688783141925   -1.20937094260482   10.73099595489248
Si        9.77317614398484    0.46510684240462    8.04745295022176
C        11.49522176863949    1.93912107154317   15.01263802599398
H        11.94485930292600    1.28486023798299   14.27192521503330
H        10.42369126725291    1.76779833941457   14.99240710377627
H        11.85809636504265    1.62700795790844   15.98703344208891
C        13.81021460769143    3.86838098196257   14.36921779992037
H        14.13950606848414    4.88181162056296   14.16813795778895
H        14.12097458719730    3.24655422606961   13.53686150114481
H        14.34064393487217    3.52355304847315   15.25209955774386
C        11.47625715749697    4.84617721701539   16.14994127926040
H        11.94434295055595    4.46235438474996   17.05073316662122
H        10.40567887151266    4.85692427337445   16.31599040487055
H        11.80512899626576    5.87195068776031   16.02283275770377
C        12.49916009717775    7.09951737980884   13.08079959830859
H        12.80296920890057    6.97242323431170   14.11409177415480
H        12.38063078070101    8.16479456548510   12.90529615436172
H        13.31516085696581    6.75957261036946   12.45130321300839
C         9.47554336670259    6.97188549915779   13.74320545175313
H         8.51959423315833    6.50094061415083   13.53725906650457
H         9.37248995923847    8.03023122816020   13.52521287805273
H         9.66837385620769    6.87229933985957   14.80533707280807
C        10.46358012456859    6.48515858277749   10.85882139877323
H        11.05790757932495    5.84715835668403   10.21338463837401
H        10.66679435862756    7.51456920274063   10.57900931638637
H         9.41749984524152    6.28920067874872   10.64737537738902
C        15.11133854761928    1.01845944251026   11.77822850603692
H        14.04556957377001    1.03025658607570   11.98549275993007
H        15.59941422086877    1.60611773941150   12.55011215455089
H        15.45847533166802   -0.00471323687477   11.88549394656045
C        15.48955063321153    0.30582382580638    8.75318693110987
H        16.08250753929447   -0.53265618899157    9.10613825415640
H        15.91991952682109    0.63350701531603    7.81214939397482
H        14.49129596483838   -0.06617061446876    8.55356979345801
C        17.26316569828292    2.44120922601730   10.09292895300825
H        17.33479844759005    3.26312928152475   10.79838852791994
H        17.57559619611046    2.81398443265367    9.12405382782907
H        17.98137550406544    1.68688279471894   10.39890820169173
C        15.80761751724641    4.39733450516395    7.26766223048057
H        16.49063647312655    3.58014769410721    7.06111376876454
H        16.27043328840471    5.03304194704668    8.01514694249999
H        15.71459175388522    4.97947118279915    6.35636065115009
C        12.86560470772977    5.20673568829902    7.84364881483934
H        12.76574854563614    5.65018638605501    6.85770426247018
H        13.17525850658762    5.99221139977772    8.52639247780527
H        11.87856407983502    4.87634896014020    8.15267274773014
C        13.50661298472847    2.47279148672061    6.55601020354861
H        13.54467901042478    2.90346234249154    5.55925727607318
H        12.48336445131331    2.16552710802204    6.73721446865675
H        14.12638422248613    1.58332642610996    6.54654163014103
C        12.53192140557654   -1.53595929790210   10.38046652523978
H        13.15390783679776   -0.70028286025247   10.67687355119273
H        12.70958723157682   -1.72816347963986    9.32847424429444
H        12.87092858071802   -2.40900784824529   10.92962900705824
C        10.49012983815618   -1.04558626996248   12.62205785575902
H         9.55078182369071   -0.56082193660114   12.89589278882455
H        11.29250505805052   -0.44532993905603   13.04066250614220
H        10.51547944391252   -2.01005484384564   13.12043486993107
C         9.72738646458651   -2.69259169740773   10.00966187598085
H         9.71149985147756   -3.52460523219727   10.70610703145856
H        10.18793587477337   -3.04664375492987    9.09335175298031
H         8.69921309400164   -2.43953599670353    9.78021260415983
C        11.10371331311490   -0.50129936966490    7.07190542089380
H        11.02872225161303   -1.56519868833710    7.27090545125606
H        12.11683489655771   -0.19480714781161    7.30532135026252
H        10.96162852989570   -0.36094088855824    6.00445671662494
C         9.71625226725257    2.28346762664799    7.45641849196063
H        10.50685738558599    2.88256523261751    7.89702831317084
H         8.76764194148701    2.73717954326200    7.72718516011550
H         9.81278720163563    2.35170081857097    6.37692711226794
C         8.09156139599052   -0.30690058030308    7.60217977361442
H         7.86400045971150   -0.15572411410836    6.55128786762354
H         7.29038320949446    0.14441560733816    8.17790497965867
H         8.06748153009085   -1.37519538493192    7.78936688018261
S         5.94668811804738    0.08045723388958   10.48614923724340
C         5.84019700269411   -1.60428968873242   10.09844621190642
C         5.20454501712291   -2.00779699683605    8.92015659980086
H         4.80155154528671   -1.24875238650560    8.26767287673557
C         5.09668330708736   -3.34402674838912    8.60283141451350
H         4.60860955979508   -3.63232997417513    7.68374335703415
C         5.60719333193406   -4.31801905841112    9.45254220604306
H         5.51632077220130   -5.36460677256104    9.20643450909984
C         6.26131364541821   -3.93781734756448   10.60928298301470
H         6.69090081156779   -4.67504433250519   11.27267937227611
C         6.37553870706979   -2.59518871929624   10.92570585158103
S         7.42739567531214   -2.10138446286748   12.27828303202032
C         6.84035729478724   -3.10103387652062   13.62050104646970
C         7.76727663106868   -3.86876971525302   14.30653136213858
H         8.79788716040003   -3.85460450436128   13.98576806030895
C         7.37019052659979   -4.62969135723184   15.39036956411264
H         8.09266673438835   -5.22512216129308   15.92641963544414
C         6.04027417504469   -4.61609242821378   15.78337912012452
H         5.72192240825125   -5.20293432195013   16.63236834314078
C         5.11278843919914   -3.85157616364487   15.10354041021733
H         4.08209546245959   -3.83320736056955   15.41857415842512
C         5.50127478557983   -3.07841083991739   14.01596219445372
S         4.38770127174110   -2.06155045920926   13.11915243342906
C         2.83978211629842   -2.38722328560500   13.95138554693584
C         2.05162307055598   -3.44680166607338   13.49443958090819
C         0.84533766087966   -3.67615102977308   14.14177679617879
H         0.23707457232664   -4.50097238410810   13.80627628520263
C         0.39791589994002   -2.87499952756775   15.18182044990146
C         1.20790970611817   -1.82682600586891   15.59788349802541
H         0.87360607854476   -1.19435028741051   16.40146614495837
C         2.44107872524026   -1.56608839146905   15.01083151441828
C         2.43723571160863   -4.30480062976020   12.33924148479106
H         3.46725677525639   -4.06221414137716   12.06261787716007
C        -0.93712543437737   -3.13990334543172   15.79741380890113
H        -1.35476372415683   -4.00444221420510   15.26888931870596
C         3.28460247917406   -0.43548643426129   15.49842896452419
H         4.29148003085942   -0.54437422035561   15.07119050682948
Si        1.39964736827996   -3.75909187773092   10.80306325291225
Si        2.45778630848357   -6.18437009540988   12.75338401882192
Si       -2.17410200475194   -1.71234673053582   15.41382677502287
Si       -0.77993320477399   -3.75046870697071   17.61747489484410
Si        2.63762351954910    1.20946723351725   14.72277063642020
Si        3.55116563236690   -0.46509533225616   17.40629747290498
C         1.83040656448021   -1.93905963604591   10.44086329374524
H         1.38075903451174   -1.28445661424163   11.18126273865918
H         2.90200682848327   -1.76820908140083   10.46150832315277
H         1.46807810206902   -1.62696227274178    9.46625619364987
C        -0.48566691939004   -3.86709351520381   11.08403937036100
H        -0.81551364640920   -4.88033182483119   11.28519528826118
H        -0.79628640350468   -3.24499760322610   11.91624834813058
H        -1.01574145551392   -3.52212170374647   10.20099884195746
C         1.84814845144960   -4.84621714252767    9.30389303886144
H         1.38073109759988   -4.46201506687949    8.40290923723825
H         2.91878518796584   -4.85782314554232    9.13825902906409
H         1.51840894969686   -5.87173432874876    9.43085172321193
C         0.82343652477062   -7.09875397753701   12.37300046253007
H         0.51985701947748   -6.97156206983896   11.33965432127477
H         0.94139042031501   -8.16408169174404   12.54857100721488
H         0.00748312482477   -6.75839680906913   13.00233863274952
C         3.84715640454510   -6.97275413841182   11.71098944517053
H         4.80348637402427   -6.50318224108926   11.91806251817191
H         3.94879871381812   -8.03138668168385   11.92805693634682
H         3.65524479449024   -6.87191923311903   10.64884998705135
C         2.85899381154389   -6.48538909186075   14.59527568300119
H         2.26477852482101   -5.84719694686219   15.24063964972497
H         2.65539240954151   -7.51474016111921   14.87503439744703
H         3.90510892024050   -6.28978189887624   14.80688636558479
C        -1.78682393039263   -1.01722883225966   13.67499150492088
H        -0.72101777561597   -1.02914383258781   13.46792206985697
H        -2.27481961293103   -1.60486555623278   12.90303719123256
H        -2.13383625463304    0.00597716223314   13.56762901722873
C        -2.16535519058896   -0.30451157743796   16.70000834582264
H        -2.75802724923829    0.53412111150134   16.34694599512926
H        -2.59600312332618   -0.63211781146575   17.64094808211020
H        -1.16704766808564    0.06722549924375   16.89984723388912
C        -3.93918642727885   -2.43952314022095   15.35996501974768
H        -4.01089146589688   -3.26139651299146   14.65445793658884
H        -4.25182291789152   -2.81227532304099   16.32878092054777
H        -4.65720259443695   -1.68503567642577   15.05392523950628
C        -2.48443595702008   -4.39563213927448   18.18566610933691
H        -3.16724618225162   -3.57823477753261   18.39207656371795
H        -2.94735521998542   -5.03127254632700   17.43818721990851
H        -2.39166645304801   -4.97772036364167   19.09702776864442
C         0.45740948597698   -5.20589603958431   17.61003888165846
H         0.55709981279253   -5.64925401600830   18.59604405486703
H         0.14757038697373   -5.99137444760180   16.92738053820662
H         1.44455780069497   -4.87582083711201   17.30101886992472
C        -0.18296272195252   -2.47168478351765   18.89739777622771
H        -0.22117610030382   -2.90229516553856   19.89417418876550
H         0.84036754320115   -2.16466401372949   18.71622550973080
H        -0.80253094376012   -1.58207642467191   18.90679112721507
C         0.79269076304716    1.53644719570343   15.07345758645364
H         0.17048162277164    0.70096354394692   14.77698112010967
H         0.61512652847314    1.72859261136834   16.12547778471236
H         0.45389234389084    2.40964463614325   14.52439688564738
C         2.83391986915247    1.04539150158738   12.83168448782464
H         3.77294103823817    0.56022777754559   12.55763050632123
H         2.03119984084644    0.44541408277489   12.41337274083401
H         2.80881295445934    2.00980183015365   12.33318499950810
C         3.59728910664929    2.69271022426165   15.44389589319141
H         3.61395691999437    3.52433054642913   14.74700283582826
H         3.13622597906475    3.04745394568561   16.35968454984604
H         4.62521625965839    2.43941571470745   15.67419683664795
C         2.22090583980235    0.50177561784246   18.38176446944005
H         2.29620589050989    1.56563457923009   18.18267488320042
H         1.20771137763741    0.19553931603659   18.14833824431162
H         2.36291593762995    0.36146180264223   19.44923118287145
C         3.60752569884657   -2.28342526587293   17.99747518212392
H         2.81679309949363   -2.88231279576179   17.55680565094999
H         4.55603533655108   -2.73744829620485   17.72686425103553
H         3.51082554402674   -2.35156578973226   19.07696169772801
C         5.23301990683174    0.30640339293199   17.85161530207512
H         5.46041739660432    0.15536090832092   18.90256411873832
H         6.03411925034994   -0.14530303224769   17.27608452236100
H         5.25750413814393    1.37465981607647   17.66423282324728

