96
CSD_code = ODOYAK | q = 1 | S = 0 | Stoichiometry = C52H34AgN6OP2(1+) | MND = 4
Ag        7.22947902432507   -2.86523176418327    5.57018628111513
N         7.42796940830314   -0.79423108572207    6.79752093314303
N         5.33275229960209   -2.54315795418042    6.91220154266658
N         4.52783386833539    2.80573521482466    8.03261169560813
N         2.40817413305127    1.01784371248365    8.20899163479973
N         2.92103151568222    5.71622992979950    8.78160525057927
N        -0.10111464928625    3.15567450813276    9.08406018711572
O         8.79097252338281   -1.53741355943655    3.68591152259826
P         9.42610751461612   -3.90734023714636    5.02446099367453
P         6.01011356350866   -1.88997883756768    3.50588704138967
C         8.44697224691311    0.04085272350721    6.74791609608235
H         9.40525160167900   -0.39596258799114    6.50014835841074
C         8.33979901980041    1.40603256703340    7.00604514381605
H         9.21020057907194    2.03873673301569    6.94224895591243
C         7.10852894806499    1.91498322714166    7.35103896144311
H         6.95596908764848    2.96014578511909    7.57067352883232
C         6.02001161682356    1.03989137168590    7.43125899901920
C         6.22030055710851   -0.32171685890338    7.13626265814785
C         5.10926379896222   -1.25338042563484    7.20759177108622
C         3.83192253979541   -0.79695663766596    7.58526930509489
C         2.77806961047315   -1.71501004133582    7.65053023241275
H         1.79813826553485   -1.36810963378078    7.93933776746221
C         3.03233661719824   -3.03451350032239    7.34791225182702
H         2.25356929527552   -3.77839444550086    7.39106613164709
C         4.32774024455682   -3.39736776865301    6.98876129089999
H         4.56474640678996   -4.42858800748481    6.76254287810001
C         4.70782729792910    1.50781888917487    7.79429214799243
C         3.62838474566100    0.59907801882044    7.87856132635533
C         3.11106111097496    4.60355555331869    8.59572141066105
C         3.31737148062647    3.21866815069422    8.35635099266715
C         2.23340411714623    2.30274191568182    8.45326769034472
C         0.93571703461963    2.76123903397154    8.80458371202591
C        10.59336300805823   -2.51127170663390    4.85534063725894
C        10.10257898544890   -1.43662348343731    4.10672974318336
C        10.87573824269927   -0.30834533360399    3.88967053004144
H        10.48007030089348    0.51566271925038    3.31418243608679
C        12.15405683484153   -0.25321569874930    4.42409217930782
H        12.76390889527971    0.62035315385312    4.25446574970965
C        12.64615522565623   -1.30887892415622    5.17346256060148
H        13.64153297620195   -1.25710295681569    5.58640999814089
C        11.86953872239966   -2.43491655455846    5.39536560513206
H        12.25665413545505   -3.25659353512729    5.97997066505597
C        10.42353709539618   -5.12634863628555    5.92952232702212
C        10.59759527545682   -4.89133697721059    7.29293982074875
H        10.14800500523567   -4.01163611182278    7.73981954210308
C        11.33618478210194   -5.77151579749993    8.05953721723156
H        11.47799982228983   -5.58368118659352    9.11318044511487
C        11.88793123230142   -6.90105839020274    7.47355397579329
H        12.46210212283555   -7.59161602682020    8.07183881173201
C        11.69406070620334   -7.14997802785955    6.12497205495668
H        12.11436624565316   -8.03595590451294    5.67367340276256
C        10.96033515367372   -6.26877311120807    5.34894228882975
H        10.80428548413998   -6.47111710508348    4.29907933023034
C         9.42488666605677   -4.47484245450921    3.29351211646282
C        10.58952335482522   -4.49583242517205    2.53043848980623
H        11.53414795101199   -4.21947922791321    2.97974931411620
C        10.53176993909772   -4.86712832107130    1.19981418500416
H        11.43525979938607   -4.88546014299373    0.60918348444855
C         9.31908801637800   -5.20998870354366    0.62229442258380
H         9.27956977623668   -5.49057693892710   -0.41885080336623
C         8.15924121353540   -5.19498588024104    1.37914195139644
H         7.21455432526684   -5.46281855881416    0.93069277124527
C         8.21366208767830   -4.82997409633159    2.71152808606245
H         7.31153586523176   -4.81170508510304    3.31762483861867
C         7.11630855461108   -1.71589711040044    2.06432573056634
C         8.48079223909634   -1.57456425755256    2.35076658770223
C         9.41514313489428   -1.53658725033512    1.32925421033938
H        10.46680610887791   -1.44997325010608    1.55696911294435
C         8.99063529899526   -1.63450004669863    0.01495916406094
H         9.72031910469003   -1.60395700483456   -0.77887965536916
C         7.64717362733373   -1.78305372822159   -0.27976494908944
H         7.32389284478802   -1.86743674040075   -1.30523308009171
C         6.71464361883018   -1.83590170894397    0.74149509279800
H         5.67056897113360   -1.97916104443632    0.50855745339784
C         4.47701854294955   -2.53105039174582    2.76503851079870
C         3.65575740680379   -1.76640644103913    1.93871947305750
H         3.90960171821654   -0.73622125686436    1.72886426638618
C         2.51186141274647   -2.32495913654292    1.39911979643707
H         1.87763215674762   -1.73152553543664    0.75787803708330
C         2.17770920259808   -3.64162486692775    1.67823337054913
H         1.28350103409417   -4.07109865531431    1.25344000541745
C         2.98644885325302   -4.40326970618709    2.50544487465035
H         2.72350807918915   -5.42666963252771    2.72709324024394
C         4.13118155044404   -3.84796650726850    3.04872344379298
H         4.76756692257090   -4.43207922476535    3.70510627310644
C         5.54962962209976   -0.16625012363455    3.87719826852740
C         6.45984068390573    0.87803209053073    3.75146100612341
H         7.44468396511932    0.68823142528475    3.35099723717800
C         6.10197317634708    2.16177428283081    4.12207430432702
H         6.81043507643217    2.96925076081195    4.01354159426634
C         4.83350774575490    2.41899504972441    4.61570375125818
H         4.55329669356550    3.42540707457601    4.88776281041327
C         3.92562043283772    1.38076024788725    4.75297201817492
H         2.92804305283239    1.57559095153407    5.12121102843384
C         4.28549477062969    0.09252296623737    4.40413744297241
H         3.57525972726222   -0.71654378896768    4.51683270989293

