36
CSD_code = ODOYEM | q = 0 | S = 0 | Stoichiometry = C11H21NPdS2 | MND = 5
Pd       -1.76646946439683    1.41297779283972    5.72224167938149
S        -1.62791062964764    0.22390198355233    7.74625359624447
S         0.22298918845632    2.19996039943322    6.70549917323634
N         0.54216009024018    1.01731271369356    9.07092328629802
C        -0.19965179393203    1.13388420921270    7.97060282584038
C         1.74353750469277    1.80529408037282    9.24520678576864
H         1.88967990396106    1.97276055621280   10.31470420348146
H         1.59970779452622    2.77198067995604    8.75485917495213
C         2.96881097277548    1.11141955332794    8.64449761644447
H         2.79333064399507    0.95723188652240    7.57896796871226
H         3.09646616692005    0.13205396004084    9.11116723867470
C         4.22456672028239    1.94825652994088    8.84347632192401
H         5.08591102528290    1.44678263006356    8.41039313646849
H         4.11291279815578    2.91691651288639    8.36274796997560
H         4.41617365359309    2.10879677103808    9.90247161826421
C         0.16283642370207    0.10540669942489   10.12883751756968
H         1.07127424663573   -0.22381928116677   10.63812359028322
H        -0.32318640918302   -0.76514974033886    9.67996704143811
C        -0.79669473606054    0.76207667071848   11.12481500255750
H        -1.68635060107028    1.08949971268532   10.58504003242732
H        -0.32123573136625    1.64431016018812   11.55941223569948
C        -1.19312034444406   -0.20981451448158   12.22702148092134
H        -1.87500549289371    0.26797266272738   12.92541817241200
H        -1.68863695451540   -1.07957769493727   11.80299392256082
H        -0.31668840579187   -0.54610850770861   12.77707523695249
C        -1.92458141037051    2.32034856740565    3.81482709592421
H        -1.42458327277646    1.59773402994752    3.16453822737752
H        -1.67011557093899    3.35998192977087    3.62941964283932
C        -3.44286457316689    0.65967632675420    4.67904390719470
H        -4.37746913020062    0.40668768989482    5.17224448755207
H        -3.01781651630765   -0.13218599768117    4.05716507277099
C        -3.19696636433894    2.00895126272367    4.33812199666848
C        -4.11424411383345    3.09342362657387    4.83768900029107
H        -4.97785469641392    3.18383043670672    4.17827320099308
H        -4.47738833946898    2.84884055839455    5.84154812095372
H        -3.60042258210338    4.05478514329498    4.86911241893300

