91
CSD_code = ODOZIQ | q = 0 | S = 0 | Stoichiometry = C36H49Cl2O3Y | MND = 6
Y         3.45183504864039    2.53395749853692   18.40998097201169
Cl        1.71560970012407    2.02640560994352   20.20392674695318
Cl        5.74886449343267    2.37998455080511   17.31935669355492
O         4.77515181668495    0.78589202363674   20.02778173217194
O         4.72236394983653    3.76454897368634   20.28068512931326
O         3.12558689770964    0.08003207196927   17.71654813465150
C         2.39934039631265    6.24091732018293   19.51199421782047
C         3.00828445593307    6.99948049660954   20.50169942514403
H         2.46110912833919    7.22511268514438   21.40781456360376
C         4.29314597523095    7.50164572376532   20.34320758816817
C         4.98398691068545    7.20322524073346   19.17833239996702
H         5.98855136796142    7.58297774926656   19.04432097999142
C         4.40374756860475    6.44997947337226   18.16605993957368
C         3.09833793925576    5.97886686663401   18.32950383186066
C         1.00673759300965    5.71832356486624   19.70269082655826
H         0.40356715673857    5.89324411419464   18.81347715519110
H         0.52817948281916    6.19308890396553   20.55604226438058
H         1.03108712551325    4.64100412034348   19.87975113675917
C         4.89857609655596    8.37354859022421   21.40477955439846
H         5.96962645811625    8.49179250287373   21.25418887846609
H         4.72289531952603    7.96042471767944   22.39723455581435
H         4.44254314150451    9.36357979823313   21.37472761180675
C         5.15719434406506    6.15733286908196   16.90211248973023
H         6.11406100660775    6.67461882691138   16.89141794038478
H         4.57952317214153    6.46618664937594   16.03202350680424
H         5.34142942185516    5.08505419703411   16.80753758282039
C         2.39307566047552    5.34329751183172   17.18159293362479
C         1.75613742095023    6.21752308858994   16.30358004778532
H         1.80975256870070    7.28199734578185   16.49042014989386
C         1.06318659299137    5.73420600594098   15.21178471727386
H         0.56975578423147    6.41171612222059   14.52950957619521
C         1.00782229397467    4.36965615487616   15.00920314320297
H         0.46672615197111    3.96329213984190   14.16481243102043
C         1.64497508723364    3.49676143096897   15.88824719501193
C         2.36672920360885    3.94813698790059   17.00767579386427
C         2.39109355782302    1.43253481507321   14.69091768230906
C         2.14194970935720    0.13051498612330   14.27927670890163
H         2.81573190239390   -0.33936619974598   13.57439098863625
C         1.03269298222884   -0.57243173273104   14.72931101513185
C         0.17542127875806    0.04422050697022   15.62863815931951
H        -0.69238633762118   -0.49371865094321   15.98775479931344
C         0.39427058068290    1.34570316933181   16.06105666110268
C        -0.54593079099436    1.99524612212842   17.03305563104832
H        -0.84389829795988    2.98135224752972   16.68039686257027
H        -0.05627233379508    2.12603139197365   18.00085682762313
H        -1.43585056060371    1.38681617624534   17.17811160411949
C         1.50294661667068    2.04668748001978   15.57857159337070
C         3.59276772151812    2.17509793469154   14.18850405949266
H         4.07591468391702    1.63046102625288   13.38061307017986
H         4.31732870149143    2.30774295603177   14.99491320801606
H         3.31288967865523    3.16516382560550   13.83212455202738
C         0.75588323832188   -1.95916233020290   14.22654990622970
H         0.10100845579477   -2.49987489680085   14.90695066528601
H         1.68006130467230   -2.52090684088971   14.09952783871641
H         0.26270476094896   -1.90937579370704   13.25490990613809
C         4.26750165100574    0.09215934545648   21.15850851126499
H         4.03868851019104   -0.94663033613717   20.87516223477731
H         3.35051105343353    0.58518511812242   21.48128285220531
C         5.39160960163934    0.10729497220896   22.20672392246926
H         5.42731724288283   -0.83328018073604   22.75307097047478
H         5.23837697289200    0.91042918485213   22.92594757854298
C         6.65831862166145    0.34177943877554   21.36575705272404
H         7.11736896056741    1.29931351592572   21.60962246901915
H         7.40368466381922   -0.43836969255636   21.50533939614509
C         6.12315073616858    0.35149279577165   19.92772525028168
H         6.65386162370902    1.02200623080930   19.25215093867889
H         6.15001791011096   -0.66758571153967   19.51246475015956
C         4.23909787482726    3.96623457541409   21.61826303859251
H         3.61908621782724    3.10991355820177   21.89429950137272
H         3.61943335275709    4.87168561484493   21.62745380241815
C         5.46919594098662    4.14526354659711   22.49974840550784
H         5.25306859470764    4.73702267617255   23.38606285058803
H         5.86812289252956    3.17905089595343   22.81067793689789
C         6.43258039555688    4.83403249130150   21.53820958335242
H         6.19979274437550    5.89539244057634   21.47214263186893
H         7.47724202802708    4.71316151233739   21.81653208070201
C         6.10664602436268    4.14403155939789   20.21848087159880
H         6.24838059330014    4.79243307220030   19.35068516521254
H         6.71206207617846    3.24019035722496   20.08231080922986
C         2.12130736196244   -0.79721690075586   18.25891329123414
H         1.14217251305112   -0.47089416350934   17.89841754961395
H         2.14060910080969   -0.70457172373256   19.35030978986346
C         2.46934426941817   -2.21256996535788   17.80105381942496
H         1.95011964875322   -2.44408793608382   16.87166752245446
H         2.20815215111119   -2.95878090749717   18.54816529093728
C         3.97102325101225   -2.11437988028537   17.54756740788108
H         4.33892370550517   -2.86479994605801   16.85207224573864
H         4.52314933877338   -2.19928716436270   18.48476744042249
C         4.07898703351712   -0.70337875313550   16.98588830061354
H         5.06246898654249   -0.24393527490424   17.10871107992986
H         3.80520277244422   -0.69035248545818   15.92299007250569

