66
CSD_code = ODUDOI | q = 0 | S = 0 | Stoichiometry = C29H32ClN3Pd | MND = 4
C        -0.94364663558638    3.27825030461657    0.71499767035612
C        -0.42112581723468    3.28400381202157   -1.47688582911839
H         0.18738653640454    3.15716818049307   -2.34855285293425
C        -1.68504738227169    3.74137823376648   -1.34060535576885
H        -2.38201557595506    4.08053853644638   -2.07932688479753
C         1.31431996519991    2.68875018471914    0.24399751527225
C         2.18833654483187    1.90495812512487   -0.63573600767219
C         3.56828435827685    2.10757529237694   -0.64354881554529
H         4.00271727894034    2.87169723033634   -0.01894386232791
C         4.37852678391439    1.33940817708050   -1.45742901854580
H         5.44500362560923    1.50632522050271   -1.45749574745708
C         3.82900796612936    0.35904485762022   -2.26761838419661
H         4.46575179321625   -0.24175970626306   -2.89918873155586
C         2.45963978886320    0.14789484597196   -2.26221271378044
H         2.02726668855348   -0.62042211401653   -2.88588292125764
C         1.64191377413194    0.91460645505276   -1.45489496437454
H         0.57738482244634    0.72758690511836   -1.43621605105162
C         2.69535153837207    2.72761284190896    2.17505221901936
C         2.80943370403685    1.42813837787458    2.68017510970916
C         3.92022423632238    1.11634662615454    3.44669191319491
H         4.01310704543901    0.11712898876269    3.84847116111022
C         4.89820724635915    2.05858544986520    3.72832020063448
C         4.72726022018640    3.35847124985034    3.26816584066228
H         5.45705164869868    4.11323978802429    3.52536777911016
C         3.62847999420153    3.71439364322739    2.50823143192521
C         1.68827509247897    0.45030634467091    2.47942223075690
H         0.72711854429135    0.93437313344655    2.74927965762382
H         1.82503564714493   -0.41906134850670    3.11725989623879
H         1.62755338125520    0.11231721095776    1.44277376057578
C         6.09363818546469    1.70614839730448    4.56121741661785
H         7.00540535868311    2.09642001777956    4.11133750429595
H         6.18841515302048    0.62854896001462    4.67048171206295
H         5.99760146696561    2.14416803680237    5.55477978009652
C         3.38259694947338    5.12152324494764    2.05660896473680
H         4.09904754514290    5.80425970482845    2.50520294146058
H         2.37337096666488    5.41557854683704    2.35845256460860
H         3.44521086031857    5.21046674682215    0.97004580872637
C        -3.18577956181560    4.23777876687247    0.57477491760942
C        -3.13568508829689    5.40159779995640    1.34832127599664
C        -4.32029245559509    5.87280083967168    1.89286722671247
H        -4.29961855470114    6.76838009383088    2.49635934920748
C        -5.52883788275056    5.22092531304229    1.69009828477765
C        -5.54349185762668    4.06440381253532    0.92464507256868
H        -6.47521395131579    3.53974975363234    0.76993082433859
C        -4.38266627331578    3.55537362981398    0.36267287992080
C        -1.84573029301389    6.12309717788346    1.59687849770831
H        -1.22494683174432    5.55330148491959    2.32045798653565
H        -2.03684607408838    7.10602612302550    2.01905495649676
H        -1.27488842202458    6.24128010779170    0.67478727125048
C        -6.78456726627531    5.74518225209301    2.31509549095093
H        -7.66515044981160    5.34878712672532    1.81601250545032
H        -6.81220906921465    6.83182443919043    2.27360203354847
H        -6.82506323750905    5.44993819976976    3.36359513888979
C        -4.40879222414659    2.28331386028147   -0.43146287534876
H        -5.33787243796317    1.74777357099006   -0.25614951513007
H        -3.57695794721248    1.63943728747253   -0.14908103936749
H        -4.33237970813703    2.48705943259797   -1.49968857702524
C        -2.11701048939266    2.90648033010000    3.50158333631805
H        -2.45185144446392    3.79146113973598    4.05138261384357
H        -1.92373074506792    2.10689768195121    4.22634953433308
H        -2.91184647774867    2.58714264712996    2.81963243632969
Cl        0.60307276228214    3.62882725764447    4.57671510534702
N        -1.98611150931322    3.73830927408571    0.00201707059984
N         0.03407741058855    3.01164461236076   -0.20477710052923
N         1.56424210741635    3.09520564149496    1.43845383243850
Pd       -0.32844132782331    3.28992984091100    2.57697652779572

