65
CSD_code = ODUDIC | q = 0 | S = 0 | Stoichiometry = C26H34ClN3Pd | MND = 4
C         6.84501557171712    6.77088656645986    1.80887036589978
C         6.97279391374493    5.51420863245867   -0.02980774469859
H         6.95381640596939    4.61315145519441   -0.60853174514616
C         7.20454375261728    6.78778859158682   -0.41039653440557
H         7.42885617039803    7.15413379377465   -1.38846216626453
C         6.60713240097915    4.35076880706726    2.11861944765199
C         5.41062231784953    3.63701528089827    2.05528485047141
C         5.28709579747591    2.48744778441553    2.81749436390452
H         4.36316323834197    1.92835511418702    2.78351405204234
C         6.32109707366497    2.04603184043824    3.63345787183304
C         7.49664960348478    2.77919299332566    3.67913511095679
H         8.30314321082859    2.44862115683259    4.31709352613300
C         7.66447427410392    3.93639559233666    2.93138663082418
C         4.27968749268269    4.12591861805746    1.20049535770456
H         4.11596230795939    5.19083887629870    1.36141188028482
H         3.36418911821044    3.59221295247032    1.44015393051132
H         4.49535343964909    3.97406203348892    0.14269272825110
C         6.14887763612298    0.80993515518943    4.46114750917884
H         5.44278556233676    0.99980959290750    5.26908144569795
H         7.09356459151351    0.49823473427373    4.89841081883625
H         5.75296969880626   -0.00502275813004    3.85779355879763
C         8.93965897405863    4.71946942127099    3.01094328248878
H         9.30884914349958    4.97525446923016    2.01663602484128
H         9.70383941137570    4.15006012361364    3.53295204567406
H         8.76928779851968    5.66203143286514    3.57281673913474
C         7.45472187477904    8.92013263649787    0.95705983337655
C         7.30917740495971    9.90984270465400   -0.19717481104989
C         8.48983774654770    9.75634630075876   -1.17033174966477
H         8.59119567921394    8.75235126522375   -1.56837193009678
H         9.42078633950073   10.01198212215576   -0.66860494336649
H         8.35858705702408   10.43972240392975   -2.00654146551973
C         5.96677375175022    9.66769273942391   -0.90527769685332
H         5.90370096628579    8.69094984738082   -1.37399713910334
H         5.82334899442300   10.42000112684566   -1.67770460335203
H         5.14845343451052    9.75398262019942   -0.19240851492472
C         7.31526907577925   11.36755239842285    0.27882800102486
H         7.18853563085700   12.01731627688823   -0.58534491839604
H         8.25164735898307   11.63088761230883    0.76109646422223
H         6.50199589213411   11.56742906258441    0.96940624708418
C         8.09131461178439   10.32481855904966    2.84119502915928
C         7.06161485883106   10.99804128017738    3.51502345520431
C         7.38199554840643   12.13161053115422    4.24241149857336
H         6.59774169942909   12.65904079512633    4.76571857516689
C         8.68893674699401   12.57820966855127    4.32766823469017
H         8.92016971273092   13.46462555642825    4.89877169032822
C         9.70413501285053   11.86127897802864    3.72153810457651
H        10.73154243488698   12.17576584470134    3.83459474507440
C         9.42471220177598   10.72146334879108    2.98554315464354
C         5.66824797891852   10.43875367864617    3.50325916336039
H         5.25491962899793   10.38312139493634    2.49328292271218
H         5.00804478063148   11.04721830153166    4.11602793408430
H         5.68790588548966    9.41032502469988    3.92280867288187
C        10.50822678336301    9.86834869333238    2.39860935751338
H        11.48674108059230   10.20948806684575    2.72568584800086
H        10.48380421008831    9.87783212731579    1.30747121240328
H        10.36575490962247    8.83557029059749    2.72780023699223
C         6.00628470091184    6.24876580703921    4.70866346856314
H         5.23888882132531    5.73141448108044    4.12463829546473
H         5.51934272874594    6.87530658783851    5.46371369644716
H         6.62201585528798    5.50854244463113    5.22585543641422
Cl        8.06577590726601    8.32263180104675    5.47118228869941
N         6.76407308890340    5.51976819493906    1.32650732435119
N         7.14522871121492    7.56964278169751    0.72785278058363
N         7.80605897782938    9.13960344317768    2.16350906217349
Pd        7.16486301049555    7.51682094095663    3.58654168794257

