35
CSD_code = ODUFOK | q = 0 | S = 0 | Stoichiometry = C13H18AuBrN2 | MND = 2
Au       10.26427227430024    1.22546959450285    1.29681549927166
Br       12.22843909701762    2.21849502766547    0.44341252667199
N         7.31560088254512    0.81283849338230    1.84982943574992
N         8.51479755139956   -0.74535988346624    2.78446911568907
C         8.57418710025636    0.36908012505686    2.03073236087822
C         6.42656327697575   -0.02230215591818    2.49242793415810
C         5.04319590233121   -0.01876087890426    2.61665974339539
H         4.43016290448900    0.74096156928346    2.16116444997269
C         4.46141333625579   -1.03143657883128    3.35147986419755
H         3.38848914433458   -1.05258981244205    3.46393269266782
C         5.22872118511860   -2.02691879411580    3.95126682875713
H         4.73690865592486   -2.80187427663370    4.51852768680794
C         6.60359524023693   -2.04353047636207    3.83554489101283
H         7.17750057137800   -2.82337340950839    4.30757849955790
C         7.20288851403957   -1.03049979192182    3.09815156482647
C         6.99844560613703    2.00153629218407    1.08046294963585
H         7.96863351249257    2.38694155590417    0.74003819788729
C         6.16357183471660    1.65064753301156   -0.14869926828079
H         6.67016916144289    0.89181005524464   -0.74106420044151
H         6.03616451911893    2.53704321112396   -0.76364775170718
H         5.18176727085634    1.27653810890072    0.12665898218963
C         6.34136045426769    3.06406989681607    1.95794293617882
H         5.36019816336284    2.75061431984249    2.30209532380598
H         6.23074084059793    3.98307484238289    1.38930735942047
H         6.96370704514171    3.27013668979154    2.82608352736669
C         9.69161583288287   -1.49607735484033    3.18080523465840
H        10.53689395960335   -0.95649984663616    2.73353896530799
C         9.66275789808351   -2.90795283874041    2.60074862066933
H         8.86422257684374   -3.50366043918113    3.03336711697899
H        10.60959147927309   -3.40053888757091    2.80314480356052
H         9.52004139836520   -2.86763645263559    1.52306872468381
C         9.86277190671025   -1.48403285476572    4.69782254001419
H         9.06159791746560   -2.02221811162488    5.19587719737296
H         9.87331544078365   -0.46024791011732    5.06543658595666
H        10.80809754525216   -1.95174656087625    4.95811906112610

