35
CSD_code = ODUFUQ | q = 0 | S = 0 | Stoichiometry = C13H18AuIN2 | MND = 2
Au        2.68292520150636    6.85785896693773    1.96114608329940
I         2.99906079693042    8.78232301379583    0.31124002387119
N         1.24272894694693    4.89652769025217    3.75342633317000
N         3.38604782811748    4.54301384525815    3.85630214605036
C         2.43731072463134    5.31328644664237    3.28890745180828
C         1.41433676768561    3.84681444895790    4.63090736396340
C         0.53659093562930    3.06875856373362    5.37486120706512
H        -0.52969857228059    3.22002311661442    5.34631848752146
C         1.07454169194404    2.07612515760524    6.16887091565229
H         0.41480421442657    1.45694535235879    6.75680240489506
C         2.44857153324942    1.85369358541473    6.23021754613875
H         2.82797317682826    1.06709369273286    6.86373299617032
C         3.33266136580782    2.61892440948363    5.49766400402173
H         4.39438128575159    2.43706712897632    5.55442912485146
C         2.80188364100275    3.61961117449774    4.69570309015954
C        -0.01602126676163    5.49877155565219    3.35644529706716
H         0.25799300154010    6.29315488003789    2.64914381869535
C        -0.89974836407113    4.49068072731854    2.62585718888414
H        -0.35844273978680    4.05522163665124    1.78847695882847
H        -1.78036461664734    4.99607835784145    2.23942813284706
H        -1.22224438938195    3.68876548615807    3.28360746258702
C        -0.71591086370397    6.14151746198359    4.55145246833305
H        -1.02570848343113    5.39937359748878    5.28156012002701
H        -1.59612444890828    6.67829914010786    4.20880823137346
H        -0.04960003248823    6.85011732332049    5.03903335303634
C         4.81824513475293    4.65179115770187    3.62945553695233
H         5.28258817825808    3.87423793971802    4.24505446043948
C         5.15879834507274    4.37707921635927    2.16667290955814
H         4.75822457031817    3.41422389011682    1.85563280583528
H         6.23723179812454    4.36440246262184    2.03727626318121
H         4.74277174350903    5.15072139256127    1.52529968970005
C         5.34028931983959    6.00989925459194    4.09228024363675
H         4.93145059261760    6.80746484778646    3.47614580623516
H         6.42348023754052    6.03266515378746    4.01260043449775
H         5.06247274543544    6.19286792492971    5.12843963964684

