48
CSD_code = ODUFIF | q = 0 | S = 0 | Stoichiometry = C20H21CrNO5 | MND = 9
Cr        9.42010440495091    6.47770529566778   -1.47550690361746
O         9.09210377556948    9.36669639131698   -0.84922474244164
O         8.76043546404122    7.66077994554993   -4.12448940723823
O        12.04675162765182    7.66512810373854   -2.20911213689464
O         8.59264681574923    7.49777598420143    1.96251764860397
O        11.78831492108524    6.17339422929326    1.05875928254010
N        10.54028370895761    5.63294742582593    1.54703326835974
C         9.18402636140145    8.22990065583411   -1.03259975136131
C         8.98968627014103    7.16172107557185   -3.10756274546952
C        11.04813302097866    7.16145116851893   -1.91839208347919
C         8.37222552807665    5.71241987428429    0.34074108579039
C         9.72293716593372    5.29430334516064    0.41570123820953
C        10.29685889634119    4.58346278727281   -0.65448430536754
C         9.53586907378867    4.19590861288023   -1.76175694809968
C         8.18472051671380    4.55648228699844   -1.80615972619453
C         7.60393970897167    5.27901755454113   -0.75951264047024
C         7.72833139237824    6.50249281546773    1.46953160278534
C         6.44491972960570    7.22274364307452    1.05811818464684
C        11.90404659925933    7.55679187637853    1.31870434127538
C        10.83868639822741    4.46875651922969    2.40454655964301
C        11.57182237605546    4.94270045538891    3.65663359087091
C         9.54116061427758    3.75000613605771    2.69875275990440
C         8.69440521466103    4.15320617879276    3.72416428313785
C         7.50015566328636    3.49022756716884    3.95223406697434
C         7.12778955780780    2.42566215053865    3.15043940460105
C         7.96252904112330    2.01840137491487    2.12400727823004
C         9.16074987985785    2.67357650689165    1.90478211991880
H         9.44250090891626    7.07981230727269    2.17790626682674
H        11.33280659113116    4.27386559982297   -0.57036831153141
H         9.97235938064828    3.58527679517319   -2.54163663001338
H         7.56314496673828    4.21374438835940   -2.62545156992665
H         6.54357114679968    5.48429176339937   -0.79118275216580
H         7.48641202409375    5.78707953862632    2.28025438832761
H         5.62282241472654    6.52836957454996    0.91123287626570
H         6.61743205526007    7.80503749765734    0.15566457021769
H         6.18197591821156    7.90824557208266    1.85901033622454
H        12.84893909377307    7.84042332545889    0.86014805279495
H        11.93584731254492    7.76120795816904    2.39282678970462
H        11.09284023944696    8.12094090544941    0.85057335651555
H        11.49949612235758    3.77586664402920    1.85794711296141
H        11.68366389994022    4.11333036903106    4.35029197762196
H        12.55900095369754    5.30849123779924    3.38582993166799
H        11.02893179855772    5.74646778322123    4.14688585796760
H         8.96342283363100    4.98679744854515    4.35378761264129
H         6.85569894278235    3.81273440655069    4.75662884072655
H         6.19386462192628    1.91339604530031    3.32632159197033
H         7.68325050120227    1.18596262581794    1.49521513340642
H         9.81108454672129    2.34039825312360    1.10724924293828

