37
CSD_code = ODUGAX | q = 0 | S = 0 | Stoichiometry = C13H18AuCl3N2 | MND = 4
Au        4.18530019764629    4.58513362292573    5.18110263594084
Cl        5.39768035336652    6.01855913234970    3.88346406361867
Cl        5.77531623411063    2.99117145769179    5.17916857704301
N         1.73446605671257    6.03892449090314    4.34275642682403
C         2.77310664227889    5.99506196440842    5.17968266515607
C         0.97344569332398    7.15157289728780    4.64132691253422
C        -0.19748283967217    7.66787520699092    4.09901181900041
H        -0.70688526764997    7.19016117048025    3.27934985197418
C        -0.69958087546525    8.82868159061004    4.64878343225911
H        -1.60732525406843    9.25267478287802    4.24876045001688
C         1.48518324947157    5.04942717127504    3.30473194340027
H         2.31309980439123    4.33258127194793    3.37524864333817
C         0.18653356861531    4.30029219421710    3.58625913555907
H         0.23148272603251    3.84812622257715    4.57453826412099
H         0.06193263737106    3.50938639917592    2.85219261281170
H        -0.67619247138437    4.95802913298516    3.53855695614407
C         1.53630764712448    5.69807353486541    1.92481076927327
H         0.72156341313681    6.40087819477354    1.77909474847897
H         1.46858895439160    4.92644547648819    1.16328669519589
H         2.48013134618931    6.22382873817372    1.79800044052799
N         2.72915930856465    7.03379418219162    6.01638656794897
C         1.61653486194169    7.79474828472202    5.71770711519317
C         1.10024160419871    8.96570969010946    6.25995210519549
H         1.57794174853165    9.47513963942124    7.07960896201973
C        -0.06054727320282    9.46776846520831    5.71013855509042
H        -0.48455642754449   10.37552171462342    6.11012702032734
C         3.71876080779352    7.28302273676234    7.05430102110032
H         4.43557758618629    6.45508380902557    6.98375287820602
C         4.46790018013131    8.58166830204351    6.77274174774858
H         4.92003856707227    8.53671265861788    5.78445327666003
H         5.25882743782531    8.70626199620115    7.50678227840024
H         3.81017857380553    9.44440585037744    6.82045996189169
C         3.07012524252903    7.23191741841884    8.43422639982397
H         2.36733376891975    8.04667305754778    8.57995172370863
H         3.84176507151323    7.29962038598726    9.19573879020902
H         2.54435634332410    6.28810092905725    8.56104104437621
Cl        2.74989078248694    3.37016622669605    6.47400350888167

