37
CSD_code = ODUGEB | q = 0 | S = 0 | Stoichiometry = C13H18AuBr3N2 | MND = 4
Au        4.69731468331791    4.31517032024086    5.26693584082664
Br        2.99104372975823    6.01978309182836    5.26513661667590
Br        3.48020413669810    2.82796522440651    6.79750886026852
N         7.15797276122122    2.83560665053266    6.11058338396255
C         6.12551387294357    2.88573677511323    5.26571160390151
C         7.92056167945861    1.72360871956412    5.80940203847702
C         9.08435450537930    1.20224525272026    6.36019677578627
H         9.58420465563463    1.67046993879994    7.19077595654997
C         9.59129224651604    0.04700450050470    5.80327388840802
H        10.49393166116474   -0.38163809942177    6.20918124275767
C         7.39643221049659    3.81622270297204    7.15993301791382
H         6.57585568439820    4.54282949743794    7.08250072247516
C         7.31344940900035    3.15919850283277    8.53389437033538
H         6.36196826274427    2.64326794530569    8.64600741382572
H         7.38169586823890    3.92400065745484    9.30214201766736
H         8.11652812366624    2.44441752054691    8.68466329022189
C         8.70571436216229    4.55778033858105    6.91073567647479
H         9.56202493103082    3.89544628097716    6.99300380905252
H         8.81189783052082    5.35441114253925    7.64152982544716
H         8.70221148200158    5.00119642031016    5.91687742799582
N         6.17568064700957    1.85340930887735    4.42062759245285
C         7.28772135053573    1.09081053762409    4.72172570669872
C         7.80912255393507   -0.07294429744807    4.17088269126042
H         7.34088831056544   -0.57279312061927    3.34030976027613
C         8.96437814067215   -0.57988883762187    4.72778790329575
H         9.39301833759316   -1.48252340386349    4.32186719945330
C         5.19516066947799    1.61493753688464    3.37118103202038
H         4.46851916298127    2.43548466607219    3.44862303549116
C         5.85218717225050    1.69799809575376    1.99722287418175
H         6.36809562361608    2.64949683453828    1.88514906254936
H         5.08739722312484    1.62975725913651    1.22896061341837
H         6.56698993013127    0.89494351789842    1.84643676807698
C         4.45361539626109    0.30565355341961    3.62034568348360
H         5.11595932744700   -0.55064575700274    3.53806901458022
H         3.65699010309941    0.19947809643733    2.88954417626265
H         4.01019463681366    0.30913905365200    4.61420159520596
Br        6.18340931813337    5.53126357301470    3.73257151226837

