50
CSD_code = ODUHUR | q = 0 | S = 0 | Stoichiometry = C15H25BN7PRu | MND = 6
Ru        9.58704844860254    3.00996057738045    7.63964625581362
P        10.39105787548693    1.24562477108005    6.42100663448007
N         9.17686708965093    4.22398943070477    5.87762570432480
N         8.00497067427372    4.85582052707735    5.83262354496443
N         7.65363887423120    2.37052888453612    7.48382174524054
N         6.69253341963603    3.24756789788118    7.18463806528142
N         8.82917623723938    4.59610756297028    8.67464060750799
N         7.72589490840405    5.21288395519892    8.25230514470138
N        11.28133710718841    3.74864565751251    7.83403159715406
C         9.85417594210991    4.56265069421337    4.79202424928698
H        10.84075842888142    4.17987114472018    4.60902038209990
C         9.09843240869339    5.43945426172626    4.01197197244514
H         9.37045886286350    5.88721554158392    3.07787466951621
C         7.92524700692019    5.59830974970308    4.71730953042870
H         7.05442814368276    6.18260451152720    4.49906052495233
C         7.08187862327936    1.18016603794163    7.60311499782492
H         7.65619718045583    0.30925999898692    7.85599234350930
C         5.70951712727458    1.28542101814921    7.37337458351311
H         4.97906351228775    0.50271196654762    7.39828046794407
C         5.50647675781713    2.62178278643812    7.11035344504737
H         4.60823658747397    3.15828149270160    6.88059493410420
C         9.26636689723423    5.23713789677999    9.74833466649488
H        10.14699180843113    4.91191541111294   10.27020946091922
C         8.41622276231960    6.30705586665748   10.03483010422627
H         8.49727419456055    7.01051982171156   10.83820036702518
C         7.44918685334196    6.25324533587384    9.05520635545225
H         6.59523456714799    6.87671905973684    8.88288540168177
C         9.78154511515526    1.97737896631628    9.48147116891708
H        10.78425429136340    2.05420228445301    9.91921798324849
H         9.55487267766413    0.90866315858287    9.42349463411067
H         9.08523688919033    2.39490656432429   10.21869718821626
C        12.26638911761678    4.33597014270449    7.99747629493854
C        13.51831801032180    5.02796736049740    8.18392915164426
H        14.34935357333816    4.37853181807378    7.90525693895414
H        13.63300226493374    5.31720628175573    9.22924699692312
H        13.54747958857967    5.92583321233264    7.56500258770764
C        12.09345216708628    1.42789626744859    5.73961413736865
H        12.34795672932401    0.58935427040487    5.09216203913514
H        12.78971880830667    1.47138183511479    6.57607503716645
H        12.16816277238689    2.35693825409496    5.17930304691030
C         9.46900712919565    0.84252512860192    4.87779915591741
H         9.94711306255985    0.02843026842642    4.33399406767536
H         9.42988695423248    1.72998635445251    4.24825923904113
H         8.45036460385431    0.55828058350201    5.13851853478550
C        10.58652519018765   -0.45136480663432    7.10902234925007
H         9.62023729373149   -0.84698509876090    7.41160011530350
H        11.22910776002396   -0.39430562263747    7.98517282075485
H        11.03138359293192   -1.11414031771112    6.36711522942891
B         6.99955574630433    4.73591704136019    6.98859635542749
H         6.01910436219763    5.36417419288463    6.77799717123600

