63
CSD_code = ODUJON | q = 0 | S = 0 | Stoichiometry = C24H32INO2P2Pd | MND = 4
Pd        7.14178393208284   10.89179956791803   13.31874056243060
I         7.58763267075956   13.29759805609559   14.11219635500466
P         6.59275516965864    9.11167288436367   12.07619913281458
P         9.25866641802283   10.58927171531246   12.45324019191041
N         1.98615137753040   10.32253319144286   16.68708625294445
O         0.97243798955843   10.90918200276113   16.35807069361636
O         2.05992426251756    9.57091455393399   17.64159770559035
C         8.06396337053721    8.39729647925543   11.26687155755516
C         9.28615429976939    9.05721788937710   11.45367053904620
C        10.43940786918219    8.53080142160571   10.88325984687599
H        11.39289629545856    9.00683278835785   11.05941677587056
C        10.37603019453686    7.39202482434994   10.10077765419738
H        11.27699886752851    6.98919685851379    9.66252492293103
C         9.15680292853404    6.77500792560450    9.86833205717211
H         9.10475844236505    5.90175928204602    9.23534481457392
C         8.00581018971280    7.27212325960067   10.45218529618953
H         7.05784978889319    6.79092561359846   10.26140577306269
C         5.32074517439278    7.82222253285425   12.51325647847459
H         4.82705453478874    8.26703513820978   13.39244611533353
C         4.31218178931465    7.83459910078107   11.35964271776296
H         4.66179525722268    7.20478545519117   10.53803819675275
H         3.34707487070499    7.44919169454485   11.69096194858680
C         4.20677673352568    9.28435104890057   10.89074414004964
H         3.58261446503892    9.37706945284461   10.00107138908314
H         3.76909119753212    9.89399247680990   11.68639792006102
C         5.63920281452903    9.74726865241229   10.61217140263013
H         6.01221163266173    9.23851007140325    9.71200096486114
C         5.85000801282323    6.45559576782972   12.92533118032457
H         5.03959239267711    5.85562019317269   13.33553507322706
H         6.61545690175935    6.56394903940589   13.69331944702209
H         6.28197097338186    5.91356580954651   12.08844445401871
C         5.83322065971216   11.25343134222565   10.46018445796309
H         5.19078524687761   11.65213389423077    9.67652988275144
H         6.87322849058487   11.47048071384901   10.19420272031966
H         5.59744928989762   11.77493095199864   11.40096884180516
C        10.33104268434443   10.09780870756714   13.89620682935004
H        10.87530282498167    9.18368515310807   13.61929355188377
C        11.32002106156520   11.25708010468126   14.03892982248453
H        12.15954830836321   10.98052939959205   14.67822588103217
H        10.81659496541371   12.11876120078795   14.48499047396003
C        11.77386445708341   11.61037451640431   12.62511588943572
H        12.38414945670200   12.51421341292066   12.61637248629432
H        12.37312209123073   10.79570279486689   12.21096683899047
C        10.49889894859528   11.81716540951725   11.80057758057046
H        10.06037382997618   12.78168051792282   12.10224185109673
C         9.46934025669465    9.82212808016236   15.12599251619698
H        10.08730575108420    9.54832997144426   15.98031877080735
H         8.78418518059540    8.98907602669602   14.91767224367023
H         8.88934120549165   10.71434136276050   15.40097884767583
C        10.68067748214599   11.84177619454994   10.28971393441020
H        11.32277750144338   12.67551772198165   10.01128241961810
H         9.71884914810843   11.97533757695007    9.79527269632659
H        11.13111265312375   10.92500227558714    9.91659870535301
C         5.42100393012842   10.83314308429278   14.30830830282032
C         5.44958784376216   10.00421081333744   15.43407444958287
H         6.36506391727934    9.47111704776410   15.69801507961207
C         4.33300029641522    9.84281592834941   16.22828203054867
H         4.34467352544150    9.20405067376800   17.09876720478304
C         3.16002429362754   10.51419815309673   15.89346513147312
C         3.11807241072690   11.36669963389297   14.79463713837119
H         2.20240602920493   11.89353721883346   14.57178098004985
C         4.24583767309003   11.52620258863805   14.01410263812083
H         4.20853776942601   12.22012278040602   13.18024824273139

