104
CSD_code = ODUKOO | q = 1 | S = 0 | Stoichiometry = C40H60P3Pd(1+) | MND = 4
Pd        5.20096014562754   10.73155238316737    8.33218302676395
P         6.83075492414960   12.44331304487363    8.42936536501066
P         3.70904085321028   12.43254168747936    8.63055252958486
P         6.51002272124726    8.87988224334118    8.07331345774924
C         8.93632007222228   12.98039317640084   10.34123507830628
H        10.00794244154226   12.90776609365251   10.51860260056843
H         8.42841793120346   12.36698023564501   11.08188775254725
H         8.63763924562850   14.01392862258331   10.49030477731957
C         8.62510501885517   12.47935241246933    8.93833945357070
H         8.90360144216955   11.41430184160350    8.90479420132132
C         9.37144224810119   13.18055183839056    7.79900237996347
H         9.27360362832248   14.26431774136232    7.87183233552703
H        10.43528739866874   12.94179630579740    7.83894298494222
C         8.73859087031970   12.68809067406981    6.50226851823763
H         8.98053977940798   11.63283313056761    6.35997672696235
H         9.10954395475058   13.24079939769147    5.63890692315143
C         7.22316567309966   12.85422842580412    6.64468143476396
H         6.95571287499992   13.90689550092921    6.48341325931090
C         6.40563239093273   11.97705572372090    5.70101253441814
H         6.58549104477663   12.25142476718813    4.66244540425627
H         5.33378079123369   12.09943738336381    5.90960049008677
H         6.67941401517139   10.92354617109134    5.82855666027659
C         5.99497620772416   14.00097585191076    8.90680866245322
C         6.66803581239855   15.20362694985817    9.09812312291528
H         7.74036395320965   15.24829964929077    8.99449266585534
C         5.97403724930535   16.35951941916042    9.40649239634060
H         6.51134982640693   17.28317341267897    9.55772704013427
C         4.59283710760918   16.33463570328330    9.51274597332943
H         4.05101447718758   17.23624086115148    9.75360600936494
C         3.90787767942434   15.15420380738836    9.29330940328477
H         2.82930085958468   15.14727893883499    9.35818324732366
C         4.59592104362668   13.98278946765598    8.99075256401403
C         2.85479488706368   13.99809756276208    6.37199663555895
H         2.17077441080819   14.04698493270788    5.52702252277658
H         3.87190001605396   13.95012798343616    5.98498394580947
H         2.75369813599169   14.91814459639277    6.94282013918007
C         2.52940815411706   12.77528190538447    7.22129230737966
H         2.59506749732252   11.87959060738839    6.58648129989858
C         1.13113981993884   12.81223353090498    7.85385224112784
H         0.89234826079900   13.82936190861236    8.17226338285009
H         0.37716133565542   12.50399336313203    7.12963680766229
C         1.15449133789815   11.88693017338104    9.06531907742747
H         1.27730694662765   10.85042490673761    8.73943445463376
H         0.23438391706602   11.95949802888303    9.64555617092933
C         2.36389657815777   12.31985627338325    9.89817232285199
H         2.17628605433678   13.32482908036183   10.29381277267606
C         2.73407526157771   11.39056647836592   11.04574814884339
H         1.84097791133968   11.04165328574171   11.55977989064632
H         3.36103432624831   11.91483154672294   11.76438260118159
H         3.28411943811568   10.52601599877243   10.66615238905361
C         3.70471705251320    9.47390982782935    7.80611891877781
C         3.45988832992173    9.45265576888922    6.43641830596019
H         4.06561829523069   10.05576454338790    5.75806923524664
C         2.45725689795055    8.65317487456674    5.90894961748853
H         2.27749555091527    8.64901121532179    4.84380815207397
C         1.69324001994802    7.85892209069179    6.74686131493944
H         0.90941465485938    7.23881349653859    6.34000160835420
C         1.94888945187717    7.85363078951338    8.10621849526220
H         1.36692596805103    7.22569624217204    8.76463959367881
C         2.95463236329138    8.65129316447906    8.63483848851879
H         3.14161584515977    8.60838708120866    9.70241912158569
C         5.87658702568933    7.17132689797573    8.27643391264138
H         6.71442155199688    6.47569344488497    8.22668748632320
H         5.17352455198815    6.95726907630568    7.47157387228390
H         5.36594121937995    7.04332495588639    9.22896487233754
C         7.98381295621642    8.92085456135310    9.13893521312367
C         9.30696395851359    8.85812136411246    8.66632291728129
C        10.34196112101182    8.87216476788664    9.58814323390248
H        11.35586489458895    8.79228926284816    9.23427300885762
C        10.11954572101659    8.99302425663816   10.95237103381224
C         8.81188075404687    9.10540772512623   11.39313504554457
H         8.62685337306347    9.21682905313659   12.45108523323475
C         7.73971091571100    9.06554031130306   10.51398888812099
C        10.97666629650768    9.39512344795916    6.81995297514102
H        11.03529557626533    9.51132215890308    5.73989124898568
H        11.80860372997477    8.76658518285610    7.12553630795633
H        11.09023987250797   10.37571705548156    7.27734176415241
C         9.63402212488148    8.76315403832874    7.19241882765804
H         8.86215110868877    9.31019150255045    6.63656237819122
C         9.60990171464763    7.29728479602544    6.75158031932040
H         9.86328126580849    7.21602428492295    5.69724389638131
H         8.62548423614960    6.85883088989215    6.90468522819390
H        10.33248308210641    6.72272595903672    7.32631031211664
C        12.14990137959649   10.24486276116549   11.69114785807709
H        11.56522805006825   11.15838009567965   11.78007162275021
H        12.59794744479113   10.21535324807155   10.70099517927763
H        12.94943300519229   10.27573268525030   12.42671631477034
C        11.26602604232062    9.01824396441785   11.92961332476988
H        10.85114785979397    9.08900871802418   12.94082392847743
C        12.08714315359292    7.73052654191474   11.84156595888582
H        12.85983102342468    7.72975126677740   12.60600214522992
H        12.56860809808178    7.63883738371128   10.87140836769181
H        11.45022184196409    6.86205478687948   11.99413200990386
C         6.12504027113830   10.57350107511683   11.69800550619891
H         6.03197677059420   11.33169759415900   10.90685466857337
H         6.95301372052440   10.84635273962345   12.34798206826551
H         5.21611425791491   10.57504336664998   12.29398878785327
C         6.34286416697273    9.18530304978000   11.08255943052175
H         5.59919804859782    9.07155751721493   10.27314537921767
C         6.07657317297656    8.08542459039951   12.11256255421725
H         6.31886788624238    7.10735676195113   11.70233211730138
H         5.02885498228253    8.08911100850168   12.40526657587961
H         6.67512971581086    8.23478823456229   13.00679793459017
H         7.02439965632039    8.69269349672217    6.79778134996842

