85
CSD_code = ODULII | q = 0 | S = 0 | Stoichiometry = C45H36ClCoP2 | MND = 5
Co        3.25379929947998    3.35600154832708    3.57158519089630
P         2.48796640254965    3.67493768358086    5.52312197131017
P         1.75897651698214    2.10648328897569    2.26431783297940
Cl        4.07040344184785    1.55741827375829    4.44988393215011
C         2.82849527961884    1.42616179532264    0.95575073273585
C         4.03327465522792    5.17383405978943    3.52246287728178
H         4.94154294625933    5.06576956670246    2.91632012599510
C         0.43850054589758    2.93286020600375    1.31778829875834
C         0.92610398637355    0.57848596751295    2.81852294884570
C         1.18126130203824    5.98070430323961    4.49697816098823
C         1.58898661650371    5.80454455934796    3.16555959596896
C         2.81828659903394    5.12916401380488    2.77853459888535
H         2.93226993620204    5.06664019721207    1.69376701326720
C         3.31132524995282    6.19177865566231    5.71585550459895
C         1.00829360390649    2.69217524457821    5.88471861634143
C         1.99660706386838    5.47265046938223    5.64575748433271
H         1.44878924226173    5.60892462672938    6.58733254519624
C         3.45596887147967    3.56134071712778    7.05272712141980
C         2.80799879285912    3.54268105122366    8.28381907265128
H         1.72689896497170    3.50950955884157    8.32265856631444
C         4.12108917425885    1.92732208008210    0.86112742020734
H         4.45132346063771    2.68059800720421    1.57900714860070
C         4.27117990376856    5.98312795192653    4.71400116962881
C         3.60908819276307    6.99894769673302    6.80342467188075
H         2.86167275380473    7.14708774954234    7.57065089050743
C         4.84311976629332    3.59423200326911    6.99956717073277
H         5.33625685500464    3.59179546055546    6.03850175561625
C         0.77330731055018    6.31906118713313    2.15162901672050
H         1.07149982882969    6.17804524709550    1.12196467667291
C        -0.57813594101303    3.52419052429871    2.06537991819716
H        -0.53913982708045    3.45971488966372    3.14473476873653
C         0.43151505177600    3.07093536509362   -0.06448732133901
H         1.23007571450326    2.64766124023877   -0.65743078639574
C         1.19124840559056    1.36275167382138    6.26188081296232
H         2.19630537726515    0.98244371165162    6.37886494922877
C         2.40870292179680    0.43845959658892    0.06936708253073
H         1.40749084022383    0.03728893680106    0.15003641993881
C        -0.27965935089141    3.18607216220857    5.70475228045465
H        -0.42840111572588    4.21460719154862    5.40855757871493
C         3.54876778226677    3.55669619473117    9.45080127369554
H         3.04611616301718    3.53864191245395   10.40721517193025
C        -1.18376682801247    1.04114697843943    6.29361922756848
H        -2.03781595562351    0.39888743160926    6.45013760885938
C         0.01000236323956    6.67897228106030    4.76597263960201
H        -0.29296094012953    6.82347602799117    5.79505569863747
C        -0.45322448768825    0.43311655375221    2.90694061700919
H        -1.10904273074570    1.23214618048068    2.59418332927555
C         1.74834945074366   -0.47275452053715    3.22133292042258
H         2.82132548584928   -0.36057247531174    3.16805644591344
C        -1.61510758865949    4.18846488853687    1.44009535636771
H        -2.40494226510577    4.63096049286451    2.02953218676329
C         5.81127531590254    7.38196942313173    5.95684400065182
H         6.78768126310926    7.83397619618102    6.05088151739486
C         3.27468841052345   -0.02566730683314   -0.90307397684975
H         2.94860243703172   -0.79146002224161   -1.59208994454579
C         5.52403434283799    6.58561847898361    4.86844548154152
H         6.28120833625468    6.42238763358845    4.11402425091147
C        -1.37015610570095    2.35950004450402    5.91383080037047
H        -2.36959367871064    2.74711215915507    5.77577413895925
C         4.98749308259417    1.46070243989831   -0.11015791492927
H         5.99324215248424    1.84968987707962   -0.17529440226358
C        -0.38767107017912    7.00622469918562    2.43266277815269
H        -0.99061578265930    7.39839019877295    1.62699778284913
C        -0.77448734330032    7.19176837557642    3.74975836686308
H        -1.68047794380432    7.73042273054546    3.98490224307039
C         0.09836148350397    0.54472743914298    6.46974211963647
H         0.24445956406543   -0.48474882342628    6.76069071790564
C        -0.59999943449440    3.75225298918923   -0.68719210385362
H        -0.60047848475903    3.85363578726526   -1.76318675823407
C         4.84807833854937    7.59859810789102    6.92878650976629
H         5.06567183932671    8.21830293475119    7.78555449045738
C         4.93287855851253    3.59597756991092    9.39504604749627
H         5.50747737956742    3.60971778744948   10.30968576228012
C        -1.62933781852704    4.30058598599237    0.05927369451037
H        -2.43517193992002    4.82420208186800   -0.43390495054426
C         4.56059756411680    0.48519699661363   -0.99573370663617
H         5.23301681277361    0.11582824848298   -1.75611041271392
C        -0.99820264715644   -0.74612776773739    3.38307806895691
H        -2.07231608559185   -0.85149527854140    3.43955925355343
C         5.57874712844666    3.61203621709843    8.17010096185081
H         6.65750905285963    3.63775589372934    8.12782626259637
C        -0.17748769215995   -1.78611566731334    3.78331204575987
H        -0.60857091229771   -2.70386246634455    4.15645874924116
C         1.19827481418341   -1.64536264211744    3.70057202335066
H         1.84577997377588   -2.45243073009590    4.01090181183099

