66
CSD_code = ODUMOS | q = 1 | S = 0 | Stoichiometry = C27H31AgNO4S2(1+) | MND = 5
Ag        2.45373241211997    2.58236047735640    3.59964437779922
S         3.32364097160983    0.34801139220543    2.14168378073820
S         2.00245030474374    2.18491523933883    6.22232751425238
O         2.84315362874771    5.00932736992807    4.50184992525110
O         0.29253999951766    1.81126462366580    2.24225955261229
O         4.62142329675465    3.18996398920249    2.27431910803106
O         4.72073181277415    2.08773551447855    4.89832861322177
N         1.06945769212230    4.39062188546969    2.71116212937742
C         3.83440582072927    5.10200428199978    5.43636156003499
C         2.90532712843436    5.81319987052464    3.34293804510937
H         3.75104912341124    5.51502458925548    2.70734757552430
H         3.00786893937242    6.87251789271980    3.61190818920704
C         1.62102418286586    5.59234845081052    2.58599178067851
C         1.03426822101577    6.59924566347283    1.82929674029639
H         1.50514491500967    7.56574848686360    1.74688865308091
C        -0.16742867868984    6.33595920621452    1.19306934104304
H        -0.64644699795841    7.09303808388828    0.59174242624261
C        -0.75660349885200    5.09207861565653    1.35764335921237
H        -1.70411840776132    4.86335838930805    0.89682170620100
C        -0.10340172456802    4.14579872939147    2.13598687058652
C        -0.70697525802238    2.79661001034305    2.42229060680842
H        -1.05885373541246    2.79976459295232    3.46446757574537
H        -1.55513428276542    2.60160712752321    1.75464907876191
C        -0.10059324862419    0.49266171903710    2.29866866465863
C        -1.25362493232580    0.04923004264099    2.93032877373064
H        -1.91893084766939    0.74384094015386    3.41705276888149
C        -1.55289938985771   -1.30311282145934    2.95477309579700
H        -2.45035632767518   -1.63583360438759    3.45233182593845
C        -0.71259524147872   -2.21929597110516    2.34983863392717
H        -0.94781695074333   -3.27124135008187    2.37114305019845
C         0.43089391716659   -1.77757956373703    1.70828198488558
H         1.08647843295966   -2.48557410913382    1.22398186065637
C         0.74257582329848   -0.42726941193937    1.66111768978977
C         1.95740467868411    0.05682328383259    0.94430263549528
H         1.76471422798573    1.00290926257798    0.43948688674630
H         2.31999429117002   -0.69239751348323    0.24065589412841
C         4.58043724316442    1.05440129413619    1.01516338432532
H         5.54120482007117    0.66355432524562    1.34793955779523
H         4.37941359786240    0.67289477381621    0.01544361319738
C         4.58558290883363    2.58058960660590    1.00185830410933
H         5.43985081861184    2.92288931046300    0.39897369156516
H         3.66112511456447    2.95234549726335    0.54929161667280
C         5.82204767500125    3.04974199535248    3.01439561716862
H         5.92323918367413    3.97636436869430    3.58718760633163
H         6.67873579759018    2.94060820685269    2.34061316778849
C         5.80009418147494    1.89219908351123    4.01458486902860
H         5.69070702061605    0.92418760019893    3.50925101405776
H         6.74843236799041    1.88956642758972    4.57231156592457
C         4.47848167066359    0.96688690752094    5.72671739316428
H         5.42020074292351    0.63440117660885    6.18752340395476
H         4.07375717646273    0.13911982703613    5.12501033599801
C         3.50886643834273    1.34997626913280    6.83152999378496
H         3.98202209371200    2.04290747262472    7.52312922246135
H         3.18533996976818    0.45579389118934    7.36267145647593
C         2.23153562930010    3.87434260803003    6.93231418292999
H         1.42771272890434    4.45199812142316    6.47782457776786
H         2.05113936921236    3.76838460467042    8.00202370881362
C         3.55864254759702    4.49914744956503    6.67403725282442
C         4.53063581274257    4.53053363926720    7.66426360656491
H         4.31700814996250    4.09520807915360    8.63046844659856
C         5.75327280852883    5.14411637836507    7.44965953588548
H         6.49521887086990    5.15833786506643    8.23203698244150
C         6.00539331430643    5.75473595985323    6.23639913218517
H         6.94747755934960    6.25199403237720    6.06398948541462
C         5.04793097844224    5.74425333747689    5.23414230628808
H         5.25659311135678    6.24445450543244    4.30110269380035

