59
CSD_code = ODUPIM | q = 1 | S = 0 | Stoichiometry = C28H25ClIrN4(1+) | MND = 8
Ir       13.09626381887925    2.45475210924463    3.30752729218546
Cl       14.93839628550799    1.79344918141800    4.61615200073984
N        12.50003537403309    3.43516835598727    5.04720685048219
N        14.15170163735042    4.21575636721563    3.16288897856831
N        13.65313699452397    7.22433513806420    7.74673740415583
N        15.39159870834914    8.07247388727527    5.72561595777982
C        12.79985269047577    0.36660178420697    2.53402897082572
C        11.54205826991021    0.88695293150241    2.94630654321406
C        11.23907139565820    2.03388319938285    2.11745101766895
C        12.31545773030503    2.21063840045332    1.19998475652249
C        13.32090433019915    1.22843703432119    1.50042959052414
C        13.44489436876166   -0.89635136238689    2.98287753295378
H        14.44933061831935   -0.70505049982871    3.35772724570303
H        13.52905994554192   -1.57825106291112    2.13641813694673
H        12.86972905707887   -1.37893391321215    3.76747129689357
C        10.58175506997775    0.20833210757041    3.86824697482443
H        10.08349470479923   -0.60098352356978    3.33255872909702
H         9.81444258164357    0.89399522743212    4.21915162126814
H        11.09349407890749   -0.22595993277723    4.72487785398971
C         9.92981188795249    2.74646033747668    2.06462762293410
H         9.46710554412240    2.80711813200798    3.04680773997014
H         9.24972930809079    2.20520183992872    1.40493429679901
H        10.04550141893573    3.75420700758164    1.67345819863755
C        12.31860065321400    3.16529246608561    0.05452332717725
H        13.31629648193629    3.30352727842162   -0.35226029050092
H        11.92072788190275    4.13648008068067    0.34095423140706
H        11.68537676349191    2.76735981013463   -0.73934206035853
C        14.53954212807366    0.90928396237920    0.69788873269810
H        14.34254901245148    0.04190505631845    0.06666923984929
H        15.37413951282036    0.66389378520645    1.35120011530648
H        14.82881748973976    1.73510041813543    0.05358765129152
C        11.69695410154903    2.97440270552888    5.99668616197422
H        11.19205584275067    2.04109356833679    5.79852387605762
C        11.50322416859008    3.63531631766057    7.20441130937286
H        10.83637506304065    3.21223661576112    7.93798261367156
C        12.17089302337581    4.81851476737793    7.45125566715532
H        12.05825457953703    5.36396918392086    8.37436772009238
C        13.03140102996553    5.31457680106710    6.46977949420324
C        13.79698842333525    6.53309068520701    6.63310225431110
C        14.68655115869809    6.96500349400647    5.60167277045741
C        14.83133962820364    6.18121579617582    4.39202543081299
C        15.71431946733171    6.52030504041987    3.36487192917097
H        16.31330532197232    7.41151817274041    3.46105984175408
C        15.79785900268096    5.68815146452723    2.26558422583595
H        16.47455960889371    5.90727598511430    1.45560236028418
C        15.00823303974576    4.54619760747950    2.20483319261801
H        15.08105519474159    3.87474514605152    1.36266921402230
C        14.06569934221207    5.01526697484544    4.24706579832242
C        13.16667797362398    4.58556933344429    5.27968245980799
C        14.36729165225400    8.34628051564945    7.88908872780275
C        14.24671987289752    9.11547829939939    9.06666040525534
H        13.57483768574848    8.76950144959377    9.83588868797796
C        14.97631821034725   10.26174373294521    9.20122075180323
H        14.89047779795202   10.85467787782541   10.09902452540972
C        15.85064366860879   10.69140982606977    8.18063581869866
H        16.40966824569509   11.60401481661592    8.32225752686763
C        15.99363653278146    9.97424802812240    7.02750704783486
H        16.65671912210657   10.28680763402169    6.23662791527588
C        15.25746549840040    8.78261255634112    6.85130471360389

