40
CSD_code = ODUPAG | q = 0 | S = 0 | Stoichiometry = C19H16CrO3Si | MND = 9
Cr        0.00111510483854    8.75496895976534    0.65340316808639
Si        1.97894862018594    9.87265206099367    3.59589760106756
O        -1.68412780479719   11.18927804199944    0.37030470459728
O        -2.03279748938349    8.33975156766071    2.78106330987042
O        -2.29229207028698    7.71214005723777   -0.92953399635619
C         1.88091822881219    9.07097570122985    1.87866547154947
C        -1.20810977237139    8.48105441073094    1.98117462682877
C        -0.98695700152082   10.26997466296323    0.46387576879203
C        -0.20126007110493    6.94569012556181    6.17352751948914
C         0.52729391341764    7.87659135240108    5.39896701133808
C         1.01930091970655   11.51347448295081    3.54541546745604
H         0.04399972396137   11.37389925698782    3.08578494185452
H         1.54798174596081   12.27821848730379    2.98343906512408
H         0.86245496022811   11.89822938261175    4.54777657572360
C         3.80963405063892   10.10830390301531    4.07768587365386
H         3.88286732748156   10.55763442824456    5.06267665808233
H         4.32967913067051   10.75852248053307    3.37951378891053
H         4.34169496812860    9.16192818385640    4.10794842246226
C         1.97274010528731    9.83845982608162    0.71033542735687
H         2.20372811744014   10.89624403309027    0.78158885444857
C        -1.36731857197893    8.08816449357019   -0.34619352761188
C         1.65683260317461    7.68408823895880    1.73775942424938
H         1.63717469425591    7.06598646864567    2.62902082836226
C        -1.49799337884418    6.60025588661125    5.78790585081569
H        -1.92656260858045    7.05371507104949    4.90701988966814
C         1.14185540224016    8.67116213342229    4.72423261318670
C         1.65324582006756    7.87961586665921   -0.67632190155591
H         1.63342672620459    7.40992088359306   -1.65343176540003
C         1.56231894246259    7.08469305270883    0.48145357287280
H         1.46880462460603    6.00887430898029    0.39168819002869
C        -2.21421683228174    5.68751598864305    6.53785479960423
H        -3.21749285016659    5.42125158603359    6.24035194490327
C         0.36313019712742    6.36800556725823    7.31135554666761
H         1.36681257256467    6.64036368296613    7.60406425873306
C        -0.36433586901081    5.45647012081818    8.05206155105607
H         0.07296980524405    5.00992218668384    8.93330372261211
C        -1.65151131361590    5.11468246763860    7.66801212044775
H        -2.21606739708465    4.40181153920134    8.25083038033352
C         1.88886534080943    9.24999627587091   -0.56524830631311
H         2.04754938552263    9.85091277517508   -1.45322945291236

