54
CSD_code = ODUWUG | q = 0 | S = 0 | Stoichiometry = C22H22CrFN3O5 | MND = 6
Cr        2.18759789020815    0.58889761023149    1.91491063084422
C         1.97483397370063    1.03087260079997    0.13569490222949
C         3.57508679264124    1.83884952421329    1.85933225474730
C         0.91389289399233    1.89863845198287    2.29719761618410
C         0.88988470379196   -0.71116665250232    1.62521168748003
C         3.38273317343602   -0.71423999607422    1.34583631041776
C         2.50139020068830    0.02769665472196    3.96593816161830
C         1.89239126466050   -2.31046716087069    4.36519374751057
C         0.41446723996293   -2.25713943924411    4.72852982348291
H         0.16414103425888   -3.12328162475629    5.34137119239928
H        -0.15434534637669   -2.31647069761184    3.79719579797217
C         3.82013493165277   -3.67143198449558    3.74220073087613
H         4.52463994935777   -3.66425688041021    4.58292494746479
H         4.06588489865975   -2.84217035496793    3.07795806077606
C         3.81514619009329   -5.02424655507706    3.03946439165234
H         3.44105393055427   -4.91229275668859    2.02181412697546
H         4.80231745484981   -5.47828301270973    3.00239943471297
C         2.82462795693944   -5.82360853395918    3.88182876521412
H         3.30824505446127   -6.16827079508875    4.79660975600680
H         2.41716780538716   -6.68479574536071    3.35739095056358
C         1.74743282613907   -4.79091548786775    4.21519338182745
H         0.96896933473167   -4.77640334943048    3.44226902885835
H         1.27509058947336   -5.00339730028547    5.17929448709785
C         2.98885502006144    2.24457999596549    4.92660558650978
H         2.10705960501926    2.66151570508839    4.43701336875036
H         3.88059076054692    2.56506779869605    4.37433761418007
C         3.09840141329980    2.64235482684097    6.39586722013495
H         2.11019160918410    2.65783747858115    6.85592938864274
H         3.56036309574416    3.61779201678938    6.52807998363651
C         3.93352982607141    1.50495699837467    6.97917504474223
H         3.82848676214705    1.41471701977123    8.05816260915076
H         4.98708619318153    1.65776067362289    6.74298273587891
C         3.39720472696630    0.28197434989426    6.24105720287206
H         4.15888737988077   -0.48280767963499    6.06323769832051
H         2.56835897326401   -0.18316240509824    6.78544231832920
C         0.06286058346918   -0.99967115850709    5.46733374919824
C         0.22400961595265   -0.93936014028911    6.84787735055833
H         0.56492050487112   -1.81303025957841    7.38548719639289
C        -0.05518219633921    0.22179845537725    7.54696803457454
H         0.06376695835629    0.27692856723957    8.61778073328773
C        -0.48856286989293    1.32984242504345    6.84272778932962
C        -0.67263618367937    1.29755162072220    5.47278942932758
H        -1.02607461138096    2.17475015772453    4.95498041428220
C        -0.39835445392448    0.12446664791073    4.79294133617486
H        -0.55320347235562    0.08205175798705    3.72512698224158
F        -0.73947451846961    2.47285571885712    7.51679164777268
N         2.60212540449509   -1.27035137016433    4.19471451055018
N         2.46318301664104   -3.52985958801594    4.24308851297879
N         2.91575517216950    0.79712143852115    4.96367309831518
O         1.86175359050931    1.29482400783168   -0.98281316686915
O         4.41349875887962    2.57830474122270    1.57592228885875
O         0.10094171261629    2.71536002557966    2.35730769306862
O         0.16173826960740   -1.52617713239270    1.24621325912382
O         4.04603460983757   -1.51690920850901    0.84793818281438

