55
CSD_code = ODUXIW | q = 0 | S = 0 | Stoichiometry = C23H26IrN5 | MND = 8
Ir        3.24951240599614    7.13135704668999   11.93061672941950
N         4.31564595020647    5.42934650205200   12.06230156787031
N         4.97382469321483    5.27569976057039   10.90965871413484
N         5.66632708475288    4.20283763168349   10.96720384241272
N         5.49830607617916    3.60869676282572   12.13780736762569
N         2.04989986329650    6.01799726578361   10.69965590028371
C         4.65875118012216    4.36633378717182   12.82175131056984
C         4.17721454233345    4.09638210839847   14.19450832404426
H         4.71460319977405    3.24097725809747   14.59301416550054
H         3.10975236474866    3.88262128886230   14.18176703926802
H         4.34212144708508    4.96598355501112   14.82656197198711
C         2.97722124567324    9.20886065653965   11.15265786072921
C         3.18116657996583    9.27213570400529   12.55964421901492
C         4.47978857010806    8.71925598885689   12.83183736636613
C         5.13171316840172    8.50368712737646   11.55474532668459
C         4.21254975013140    8.77823021718618   10.54010615143717
C         1.81566759367308    9.80000527388517   10.41507147330953
H         2.02082858908891   10.84505584838452   10.17378680726299
H         0.91035626387709    9.76299713001938   11.01745965962423
H         1.62647257677716    9.27063283990174    9.48219109403874
C         2.27240602339111    9.94434741802277   13.54115670260055
H         1.22686366079310    9.77019568492017   13.29786729038825
H         2.45158790539676   11.02066461580419   13.52354214716043
H         2.44659087640634    9.58930807462724   14.55241009882553
C         5.20389197873350    8.79841747084490   14.14443247864347
H         5.78242315429459    9.72294346587012   14.19722433652950
H         5.88834534952859    7.96103294336016   14.26524195752669
H         4.50627867065407    8.78931466627740   14.97847159826580
C         6.55397081813551    8.10618179862335   11.33688815929036
H         7.06572374350418    8.87009990194903   10.75008616530624
H         6.61074025325553    7.16629473621419   10.78600502026937
H         7.07816196940058    7.98329262663076   12.28073060541846
C         4.52307526032163    8.75499800502501    9.07859120769286
H         5.10707019067043    7.87047787464769    8.82478973802577
H         5.11684222750291    9.63156602523134    8.80995910648168
H         3.61635669325931    8.76901180717646    8.47651636761430
C         2.30483386886803    5.85707123387262    9.40383507186933
H         3.16300583742169    6.38108643320085    9.01168221028643
C         1.54243448453045    5.04451226604298    8.58877935660960
H         1.78673752913888    4.94694732835002    7.54366017232587
C         0.47444981050904    4.35376199190994    9.14762289746038
H        -0.13800447890733    3.70418465630187    8.54115119621649
C         0.21952426538959    4.50055304494664   10.49627826509226
H        -0.58859847588269    3.95994908924293   10.96110624946130
C         1.02221895070702    5.34164369523413   11.26582360399797
C         0.89272949231898    5.57284005957164   12.69449854001540
C        -0.12524037546015    5.04578248805056   13.48973688258661
H        -0.89590223063371    4.42924241179866   13.05173578968305
C        -0.15178614543019    5.31288215290780   14.84239254449591
H        -0.94020572938122    4.90847701984741   15.45942706477322
C         0.84261976327357    6.09720568557101   15.40890596926187
H         0.82652255293522    6.29997194822934   16.47020558671665
C         1.85733836363610    6.61788486680356   14.62430344585372
H         2.62735680276799    7.20907027973059   15.09701969124718
C         1.90691379354810    6.38359247985786   13.25417559042284

