111
CSD_code = ODUXIX | q = 0 | S = 0 | Stoichiometry = C48H58FeN3P | MND = 4
Fe        3.97979787874345    7.59507379831119    2.48770835062410
P         5.92475481812428    8.13299891053853    5.26784133765780
N         5.47291723184991    6.46837201414080    2.21966894827362
N         3.44064342460568    6.22039618930380    3.59780945344100
N         2.21929576642917    8.24209809238050    2.87950188396628
C         6.49933109292478    6.42663763512173    1.35695468190964
C         7.12427487913881    5.18992568116282    1.44169728979370
H         7.97181682041095    4.88177404280959    0.86308991896208
C         6.45148806671378    4.42875233944866    2.40637443237538
C         5.41023501226291    5.25557699042097    2.87676066774090
C         4.24358873295094    5.13942914147034    3.71602683311106
C         3.84827702529488    4.08413493625090    4.54217789972205
H         4.46761959725867    3.21897311103972    4.68940446615053
C         2.62191116900843    4.15586361825921    5.17753404992580
H         2.29809334212426    3.33594272453585    5.80357396616237
C         1.80264213749181    5.25564606185658    5.01380679910351
H         0.84264388198788    5.27499231898893    5.49537824221441
C         2.24284510179055    6.31918673896729    4.21712166004309
C         1.56022316044684    7.53496031028643    3.86309478729948
C         0.33674398416545    8.17636083415338    4.14422777266511
C         0.27434446020990    9.26146694904329    3.26340420013347
H        -0.52471815047359    9.97020825116013    3.18074958092427
C         1.43623504902639    9.26329900859678    2.50265282253869
C         6.75141333540463    7.54327337129993    0.37991625167085
C         6.41354010799483    8.89282430664830    1.01619835226607
H         5.35967209063343    8.90558440756989    1.32109009711651
H         6.57949588133169    9.70260294900681    0.30802588737977
H         7.03144097349142    9.06090126586485    1.89523502398291
C         8.20948303057395    7.55690559969175   -0.08374173221427
H         8.87519356006911    7.66305775895947    0.77005863485347
H         8.38053251798625    8.38885036438565   -0.76480063512614
H         8.45688380609159    6.63589870458240   -0.60407592654658
C         5.82337542390387    7.31654331126964   -0.82343901825962
H         6.06668209543994    6.37850942577947   -1.31704295655540
H         5.91516596078042    8.12561546749333   -1.54628654152665
H         4.78802602524267    7.26140909599736   -0.48144646360210
C         6.81738772556309    3.01366517557101    2.78382982452911
C         7.16606961077797    2.93205410637009    4.27898689051578
H         8.12305324871415    3.42025415740284    4.46010372937363
H         7.25247334689333    1.89296033705361    4.59361574680286
H         6.42136768160689    3.42361516512396    4.89646521862607
C         8.05373891672173    2.53741743401785    2.00907557661623
H         7.86664764574205    2.53983015947484    0.93832144645971
H         8.30121805769657    1.52007860612769    2.30857449236305
H         8.91405290455274    3.17052734066165    2.21460058223568
C         5.66490364339874    2.06668438502616    2.41774795567307
H         4.72120127048424    2.39952962364936    2.83496653344519
H         5.87117009702150    1.05735449922445    2.77130881830986
H         5.55311179559951    2.03493873705525    1.33565804806038
C        -0.71580596851130    7.85308679445710    5.17600468354345
C        -0.06342189642859    7.70532366325381    6.55900942196191
H         0.76489912717186    7.00627049074510    6.54233403347764
H        -0.79491578546631    7.36714580783826    7.29183786696670
H         0.32306776253887    8.67060001067204    6.88280256643999
C        -1.48183331621361    6.58562290443727    4.76860940790661
H        -2.06972869449047    6.78903344741091    3.87565858994971
H        -2.15929870610072    6.27454722059546    5.56281357775625
H        -0.81103607896578    5.76571649937388    4.53579983309382
C        -1.74262764618858    8.98860447438507    5.28678167933140
H        -1.25461405907966    9.92995852917538    5.52898943952259
H        -2.45705755225635    8.75930461024672    6.07619151744890
H        -2.29364860568726    9.10991420849262    4.35784664197121
C         1.84234158645921   10.17395612833994    1.37446893681479
C         3.00229758496586   11.06661911386331    1.83002185900801
H         2.70198941240109   11.66611549987588    2.68658586524857
H         3.31387878102170   11.73527409322975    1.02921586799890
H         3.84605090381059   10.44323933578512    2.12050026959556
C         0.67276217700469   11.05248515685723    0.92630921874456
H        -0.17817625632201   10.43871843320920    0.64130296704913
H         0.96497357881730   11.65836537783231    0.07017778701457
H         0.36540802595279   11.71891529000000    1.72826418426083
C         2.30450679533726    9.30654173950998    0.19571500123680
H         3.08368354283268    8.60768338748519    0.53126150200260
H         2.70305727757771    9.92191331688731   -0.60888605974016
H         1.47129989157216    8.72294073740094   -0.18907089440882
C         4.69954517044345    8.65581125275224    4.11050841171528
H         5.13386613401883    9.58790057514262    3.71006837256766
H         3.83703524791625    8.93188851971150    4.73282097096188
C         5.46317848785110    6.69209776266755    6.26343839032363
C         4.16536876978683    6.68770859431402    6.76673651430988
H         3.47255661068189    7.45971969140700    6.46594971955693
C         3.76110343734234    5.69150429191400    7.63432476942798
H         2.75303721527903    5.69136223330434    8.02052291279596
C         4.64938296291255    4.69676393244297    8.00976574653982
H         4.33187353572212    3.91364636614590    8.68175780391206
C         5.94751448584430    4.71148997177936    7.52858537438966
H         6.64439428158662    3.94237379540328    7.82785794691204
C         6.36280980283032    5.71368669462208    6.66942314801958
H         7.38379129346770    5.72966084468827    6.31900581533998
C         7.57101663015699    7.95654696995634    4.53947636613730
C         8.05663895781502    6.74777399549919    4.05841652282596
H         7.44384383317429    5.86233861395298    4.11000593168044
C         9.31079977086184    6.69268476409907    3.47750254141539
H         9.68219227998455    5.75054608706175    3.10454472966121
C        10.07850761045402    7.83927305906413    3.35741742751777
H        11.05561023685445    7.79271991883741    2.89964604321730
C         9.58678328910678    9.05228017180854    3.81535886026821
H        10.17699511982707    9.95071903288050    3.71014958367491
C         8.33907718151934    9.11291527232770    4.40547301719726
H         7.95372501662110   10.05761395110445    4.76681660328786
C         6.21465805601360    9.34781420233131    6.61146098807040
C         7.18606309420446    9.08039188051204    7.57122190933011
H         7.76791666579328    8.17167351232229    7.50092439565459
C         7.40479334199509    9.97345126178633    8.60225511769286
H         8.16075540097302    9.76454598748839    9.34464633327036
C         6.65338337952162   11.13605027082471    8.68477818445535
H         6.82516816497312   11.83269574005465    9.49158024468314
C         5.68322740584329   11.40329252103984    7.73417638989840
H         5.09737232527051   12.30825293590803    7.79794804065196
C         5.46227044318447   10.51050002014810    6.69915320358344
H         4.70628724212321   10.71865357973890    5.95483002369264

