54
CSD_code = ODUXAM | q = 1 | S = 0 | Stoichiometry = C14H31N4O2P2Pt(1+) | MND = 4
Pt       24.56747721415094    4.61253509778788    5.37248881713186
P        26.79553543758892    4.95349337407836    4.88817388017367
P        24.52821440604474    5.52139241712218    7.47917013629963
O        22.31180028969421    6.17562653420258    4.46734518487785
O        23.07030285482019    2.45927945733993    6.78005166510699
N        20.44792722877553    5.06653626405567    5.22712173011530
N        22.59419908062319    4.28419628844671    5.61208431782915
C        19.54617840732946    6.04602084332909    4.66245856395878
C        21.81009594694817    5.23004500086904    5.06338427636178
C        22.19387758708614    3.21129421608688    6.32650118801539
C        20.76040497710840    3.05871195034910    6.49220450364601
C        19.96918551955971    3.99987077030629    5.92962142272942
C        20.23977748747944    1.88838296341317    7.26095004936369
C        22.88582644379251    6.00193619399640    8.12102850184273
C        25.11472067082214    4.35200877336125    8.75081219609519
C        25.46845626118505    7.05815755832229    7.80384967278316
C        27.44589800752215    3.99672601885049    3.46882837809688
C        27.18429922817961    6.66599185445537    4.38515035257321
C        28.06771556822922    4.57735160466007    6.15107204211438
N        24.44287540137259    1.60080763105665    4.46236708749682
N        24.33760219497345    3.68140302174741    3.55417923377360
C        24.27493464793175    2.39981486228643    3.40743652132220
C        24.07824869179856    1.75028213958834    2.07056406767251
H        20.15320608204969    6.80261053633949    4.16753357196801
H        18.94967511658606    6.51298856294466    5.44704226099093
H        18.88168218470201    5.57913107450766    3.93460621529382
H        18.89264922287066    3.95144257580908    6.01360464905762
H        20.82024461620232    1.75930741599481    8.17219810620005
H        20.34930959234154    0.97563546766691    6.67597206722519
H        19.19135202407479    2.02124047414740    7.51112829243472
H        22.41639796136182    6.70348664706984    7.43333674713055
H        23.00404934784643    6.47655291400836    9.09497188799653
H        22.25165501516706    5.12424508045561    8.22692585243592
H        26.16520033491542    4.11821343820890    8.59756666811791
H        24.53779308280793    3.43297423142136    8.66010753074033
H        24.97598120103567    4.77750799158359    9.74330047077027
H        26.52796912842130    6.91856575495876    7.60705545356737
H        25.33630356469136    7.35506860519891    8.84309562394850
H        25.08816375727892    7.84618640469790    7.15653446773129
H        26.90737783749001    4.26268315935509    2.56202354468107
H        27.32228119971070    2.93150727365980    3.65483274975034
H        28.50384442245979    4.21674141582180    3.33170512721053
H        27.02079981214745    7.35145662517893    5.21268334150092
H        26.52159420083363    6.95159816549102    3.57010241396499
H        28.21935139843967    6.73583050116553    4.05339173856204
H        27.91228317992955    5.17026040715812    7.04868955163503
H        29.05762322307552    4.79015325986470    5.75005961301558
H        28.00754303800813    3.52283121235674    6.41393574001476
H        24.29959653373068    1.98811423512136    5.40286880586085
H        24.30846769639485    0.60907364545209    4.35806448825149
H        24.18201982741070    4.24460017212009    2.72516116975364
H        24.80429596510491    0.95284699601024    1.92808708641290
H        24.17635788577514    2.46778467189202    1.26080206948518
H        23.08317799411866    1.30979624863494    2.02216890491376

