90
CSD_code = OEBPNI | q = 0 | S = 0 | Stoichiometry = C39H46N4Ni | MND = 4
Ni       -3.18730337726296   -1.94762091874215   13.27238352019310
N        -2.16155464005251   -0.75403095402458   12.13572196126781
N        -1.51843363741695   -2.69860365561205   13.95661452144452
N        -4.19901134895385   -3.08531284744622   14.46184675590872
N        -4.87383220293229   -1.28216001861018   12.50066283711105
C        -0.84480197023648   -0.42559176010573   12.25338992417834
C         0.07626525277575   -1.09811853191037   13.04788289590532
C        -0.24458589195713   -2.22316961352691   13.76536494183926
C         0.71889121277115   -3.10618283530918   14.37879497715538
C         2.19745246683390   -2.91629817145977   14.32954496072441
C         2.77566182311940   -3.43637673365603   13.01120377352325
C         0.01019271307180   -4.13441511922881   14.91926812079784
C         0.51342522719763   -5.35400830742854   15.61544807351542
C         0.40087892603103   -6.58774633847730   14.71694596314504
C        -1.38282664066786   -3.83668286609695   14.68261677285916
C        -2.43005816833574   -4.52326928145158   15.28200639026670
C        -3.72507850604745   -4.07438241041929   15.24313780768933
C        -4.77187670498354   -4.62977682781442   16.19111547953238
C        -4.33378590349553   -4.48790332390075   17.65983710291314
C        -3.97470488552321   -3.05310341744408   18.02776069763683
C        -5.09552201146350   -6.10287874920426   15.87781983800423
C        -5.51305954286185   -6.31871536444355   14.42813400664516
C        -5.92351893915933   -3.73599055315486   15.85925695504344
C        -7.17307488366207   -3.65945709346079   16.41049482467112
C        -8.05989582586361   -2.70928762859865   15.89843305379944
C        -7.72009700269722   -1.95786109896033   14.80008174410576
C        -6.46885170634077   -2.08246792132867   14.16624054913830
C        -5.52389666226354   -2.90592339966742   14.79358384560084
C        -6.14732099233241   -1.48393262621091   12.91245468668800
C        -7.08056131621388   -1.10489114969779   11.89148934266506
C        -8.56715565173685   -1.27270024402007   11.87032279146603
C        -9.29984110165439    0.02435045871311   12.22566692445914
C        -6.33449491041198   -0.61094141352688   10.85300259768932
C        -6.80091383106919   -0.12924721744797    9.51969357354321
C        -6.47880894728304   -1.14903338703494    8.42434458351347
C        -4.96697326796554   -0.68108870386451   11.26507154636795
C        -3.92814180945850   -0.05789163488971   10.60747902105179
C        -2.63369399430727   -0.01059151708376   11.08836637022963
C        -1.59811181442722    0.82632364407583   10.55146291568684
C        -1.77200031966867    1.79990580931448    9.43375331707913
C        -2.44663362702845    3.08395699313726    9.92303558141118
C        -0.48504052683026    0.59399143063302   11.30741094511469
C         0.87334959435169    1.19576732639046   11.15791370601664
C         1.75677605375796    0.34807626222840   10.23869553868142
H         1.10267941042273   -0.77086609883447   13.02683810782264
H         2.43931889954936   -1.85698121232337   14.44035405764977
H         2.66231902600526   -3.45114220651433   15.16038672772578
H         3.85009714285103   -3.27007104088312   12.97395602183647
H         2.31349110452676   -2.92979900344357   12.16696358379656
H         2.58633929821044   -4.50256609085187   12.91166723919041
H        -0.05614095262493   -5.52056125271666   16.53347237961388
H         1.55820935006427   -5.20829607260201   15.89597776783101
H         0.99262982583778   -6.45176104162182   13.81458138663349
H         0.76150075497068   -7.47250677899275   15.23733892791419
H        -0.63275845373666   -6.75244125779281   14.42187864156380
H        -2.19786608614604   -5.37424487639091   15.90063629730889
H        -5.15262922436503   -4.83180950078416   18.29588121384334
H        -3.47520262258305   -5.13665411826652   17.84459537480740
H        -3.67720629497041   -2.99660774287497   19.07245686259376
H        -3.15062980779807   -2.69362736513681   17.41512226674201
H        -4.82704134897002   -2.39437651785877   17.87595835340425
H        -5.89994476471644   -6.42848466908535   16.54121186898807
H        -4.21490252292376   -6.71091381051232   16.09643126438713
H        -6.41306374919693   -5.75236694439346   14.19876093298774
H        -5.71447944152190   -7.37258085437284   14.24922170509213
H        -4.72499263970535   -5.99852297026427   13.74982312287998
H        -7.46356248223446   -4.29936693929046   17.23031521958728
H        -9.02801091521713   -2.57891119235417   16.35887505612120
H        -8.42107830542539   -1.22835141179476   14.43660719444490
H        -8.86478365877272   -1.57274997862760   10.86201403326991
H        -8.86600804861819   -2.07402126136484   12.54710452487807
H        -9.06584985935983    0.80138530122248   11.50157415710184
H       -10.37616791613141   -0.13586960062348   12.22648022582263
H        -9.00259011801122    0.38970702998444   13.20637395854818
H        -6.32148969082858    0.82352214032540    9.27976587282197
H        -7.87765239903016    0.04191394571367    9.54442172518905
H        -5.40817284514939   -1.33223741292444    8.37461482332657
H        -6.81783874880573   -0.78737837781705    7.45577780859326
H        -6.97431620142824   -2.09438498242235    8.63416790634242
H        -4.15301946046864    0.47965127780770    9.69996922350473
H        -0.79650988991799    2.04470555492889    9.00982958784116
H        -2.37475706309640    1.35175243065204    8.64016226858745
H        -1.83980471428745    3.55809831046777   10.69122136989508
H        -2.57523139115473    3.78448122141266    9.10053623095006
H        -3.42182402330563    2.86319520660001   10.35089797904246
H         0.77987995817104    2.19974950236250   10.73908034373395
H         1.34810691783940    1.28939481170731   12.13698147386444
H         2.74440905503209    0.79386014029997   10.14094912815542
H         1.30966781083579    0.27318399285271    9.24995937644224
H         1.86674637884072   -0.65836657183292   10.63585067104220

