81
CSD_code = OFABUT | q = 0 | S = 0 | Stoichiometry = C38H37Cl2FeN2P | MND = 5
Fe       14.17912065814756   -1.68431794589346   15.32440067895863
P        13.66936398393520    0.40860275381413   15.11806914122423
N        14.17356517984251   -1.71057805457785   13.50699256216890
N        14.44426211770506   -3.69085604941637   15.14895771611527
Cl       13.22204212201828   -1.86221174036177   17.13666317051212
Cl       16.19622658082599   -1.10309035205607   15.55306639748177
C        14.32468607394313   -3.44853317255045   11.60696175377334
C        14.16917765808920   -2.97162452007395   10.32470411318980
H        13.97625302505513   -1.93069153576263   10.11283423936563
C        14.25644662055622   -3.87359384652177    9.24736540133796
H        14.13889025784418   -3.47800250344024    8.24829719977848
C        14.48242783917730   -5.21724647913000    9.41021556804793
H        14.54544165422912   -5.86994645290437    8.55207957610387
C        14.62681257463842   -5.75436336625433   10.71098496911928
C        14.84350885770906   -7.10539242025154   11.06588021853923
H        14.92231998125069   -7.85119369362479   10.28800714980287
C        14.95056122428126   -7.47005220050166   12.38584123511252
H        15.11605570641578   -8.50860203156662   12.63420538144913
C        14.84578008766291   -6.54461117039746   13.44102514025553
H        14.92419801585236   -6.88040368786154   14.46432921445217
C        14.63795429061683   -5.22409581889598   13.12750614719269
C        14.53887557028827   -4.84769075388804   11.76690441430870
C        14.31500084617537   -2.90513936767390   12.95038561813383
C        14.48221624014552   -3.98481052007296   13.87824062915023
C        14.02970062926707   -0.54778927602583   12.64923431433286
H        12.99321017828849   -0.49934971951539   12.28718743652921
H        14.69497312137583   -0.64661865010948   11.78561934863506
C        14.36823454720525    0.71402387596275   13.44123350948296
H        13.97240536395034    1.61636755738252   12.97008892596962
H        15.45214993118259    0.78596251996904   13.55970766141792
C        14.19823055661387    1.78249770162989   16.16900899970447
C        13.61486544901573    1.83541685272575   17.43499848098391
H        12.88806426427745    1.08183244662410   17.71057664150516
C        13.97464271273839    2.83095604815591   18.32211251413740
H        13.52241634984203    2.87053721886553   19.30198464621071
C        14.92241182386053    3.77418142173762   17.95479959807487
H        15.20624326142081    4.55214274145565   18.64806302097556
C        15.51352192968264    3.71478902485964   16.70382034757942
H        16.25853143504693    4.44527729479483   16.42410130029608
C        15.15968375246859    2.71948453062726   15.80911202179999
H        15.63305801029449    2.67327924229447   14.84005410687408
C        11.90288848475597    0.76689113498393   14.84109802400653
C        11.41201963627922    2.06747302763172   14.79474230967858
H        12.08052061451916    2.89921830762235   14.97052144261391
C        10.07207029787443    2.28867709198583   14.53365687576857
H         9.69014273772030    3.29857121609888   14.50142364687471
C         9.21884740566718    1.21826329777557   14.31571951861786
H         8.17282467318342    1.39606552830905   14.11457666254683
C         9.70381549863066   -0.07877825700765   14.36155735563805
H         9.03673202525104   -0.91210852241844   14.19680218389207
C        11.04259871520176   -0.30434596425030   14.62525790315125
H        11.43446104622367   -1.31507869580606   14.68215460359288
C        14.43510742855720   -4.71470236183798   16.11266095717445
C        13.20852550940683   -5.30934100997766   16.44359058721875
C        13.20206111147685   -6.31957361583548   17.39310781764406
H        12.27093735591953   -6.79974682505713   17.65332579606704
C        14.36978211606427   -6.72391999359788   18.01245490295691
H        14.34423984233885   -7.51207573838315   18.75085019563776
C        15.56786757040761   -6.11710487158439   17.68832751770599
H        16.47545804428599   -6.43500415153203   18.17885211994875
C        15.62255813532720   -5.10934343336402   16.73655552532793
C        11.92245612073076   -4.87977227415265   15.77421496148824
H        12.12699691039318   -3.98546367398703   15.16988799071836
C        10.85678735972420   -4.50082373832484   16.80363771020455
H        11.23646260355141   -3.72182833740827   17.45975054536255
H        10.56828092686004   -5.35705838472769   17.40747436168837
H         9.96869484651568   -4.12598821878428   16.29786211428158
C        11.41216651508554   -5.98203273663488   14.84217949584318
H        12.15288600477160   -6.21709012504696   14.07993685470022
H        10.49725397534711   -5.66275167470957   14.34663285687308
H        11.19976352936811   -6.88829742130903   15.40485889781520
C        16.93491903347842   -4.45685134407977   16.37736503491336
H        16.74916786082148   -3.69519835062467   15.61468433560229
C        17.52935260754652   -3.75151711636981   17.59692266549327
H        16.81676223385688   -3.03042212593872   17.99066641818237
H        18.43090944426934   -3.21529394228440   17.31102965259699
H        17.77755817136863   -4.46164425087667   18.38261431603543
C        17.91375146519136   -5.47917753967268   15.79661876412707
H        17.48809776096343   -5.95783263822689   14.91599963829126
H        18.15402307373029   -6.24961426034118   16.52601614851580
H        18.83652082440623   -4.98282391180425   15.50509078113316

