57
CSD_code = OFAFOR | q = 0 | S = 0 | Stoichiometry = C24H25NO5SW | MND = 6
W        12.24687349673893    2.65814063203820    1.74369520410588
C        14.44918487360888    2.74388663198711    1.25595800344673
S        14.60995922344641    2.60858299320013   -0.45532906551742
C        16.37399012647078    2.53358745903675   -1.00453112021281
H        16.31045451226549    2.75423071916163   -2.06910670706849
H        16.93403083435790    3.33075782588334   -0.51754269827805
C        16.97787421317802    1.16167690215643   -0.77198606942793
H        18.00704940711304    1.13981182892837   -1.12720462089087
H        16.40851519758880    0.40804417537669   -1.31076215082108
H        16.96537810389745    0.90110772241084    0.28437781605873
C        15.62787956431661    2.86013728519264    1.97817627335794
H        16.57396820362146    2.91276590530687    1.45377826576887
C        15.77397524875124    2.95409448703270    3.36909040614978
C        17.10732286939832    3.03957626354447    3.94052225610413
H        17.18093735892900    3.59136322301775    4.86621926994806
C        18.20683867536304    2.47863996062491    3.41528046593617
H        18.11416296151396    1.88315463312398    2.51571186028838
C        19.55488601308824    2.55707675235437    3.94335352395987
C        20.58615882922346    1.93402585568345    3.23321255085604
H        20.35412990089846    1.40777262565350    2.31790767717991
C        21.89131632455091    1.98530995858087    3.68055162386907
H        22.67328608679954    1.49983617980102    3.11561170972615
C        22.19723538801237    2.65786214792235    4.85241772159923
H        23.21677121318791    2.69887915860485    5.20500444687538
C        21.18664313652823    3.27713050056100    5.57104451541995
H        21.42048561239859    3.80087406256746    6.48628254756439
C        19.88117319151922    3.22904139852060    5.12472926515624
H        19.11060330178313    3.71685769596202    5.70146827842342
N        14.72234209231065    3.02524216106429    4.18124053446601
H        13.81749340787534    2.95481056848108    3.71204632046855
C        14.70920271234323    2.92783593679398    5.62251794067977
H        15.44948014935215    3.62158000265980    6.04236427074301
C        13.32677981333925    3.32724062777026    6.13504062016649
H        13.10156748254981    4.34915737721315    5.82520573765065
H        12.57528390753480    2.66678989462052    5.69577826038056
C        13.26955239815180    3.21785290036963    7.65643730353014
H        12.27180911334650    3.49020513971449    8.00305792083517
H        13.98026210534422    3.91945954993025    8.09989877155772
C        13.60907418991283    1.79945484115971    8.10334003917732
H        13.57846103672801    1.73538153279549    9.19226609795164
H        12.86551648337986    1.10685604361301    7.70441895461849
C        14.99211935551252    1.40102422182897    7.59807013046491
H        15.22248247455101    0.37945790084450    7.90454775987063
H        15.74485362785938    2.05976140640055    8.03847481738360
C        15.05220267468551    1.50275580049860    6.07771255172418
H        16.04812876471786    1.23360832454156    5.71761431897228
H        14.33457528136174    0.80982737452963    5.63540117620380
C        10.28892613759208    2.56259060021508    2.09422474175221
O         9.16470572008880    2.50713687032635    2.30351512929737
C        12.28886222863563    4.30875540884840    2.86601978032948
O        12.20647526471257    5.30695663923469    3.42564608339091
C        12.46896122774537    1.27601632562480    3.16283118458825
O        12.49039938404487    0.40193502822175    3.90814688374341
C        12.12020920810506    1.08878500089265    0.50765661000785
O        11.99870376840147    0.20280550775233   -0.19953709549478
C        11.92934599941195    3.92677476636628    0.22617326363384
O        11.68994012185441    4.62821726344911   -0.63954135765906

