39
CSD_code = OFAFUW | q = 0 | S = 0 | Stoichiometry = C12H20N4NiO2 | MND = 4
Ni        1.59531792728308    2.76315233667507    8.68467512804748
O        -1.18146257024450    2.13729102977563   11.37872810155126
N         1.34162770844905    4.31995075835748    9.93092419046002
H         2.14205432901787    4.32538954575088   10.56606655313550
N         0.26967020949561    1.96976163362691    9.63162661858381
C         1.16292322358005    5.64219620375106    9.31370153699181
H         1.28032793488668    6.44267375091997   10.05719597783682
H         1.87127039531143    5.81129929575267    8.50036674175786
C        -0.28653932652273    5.56509694747655    8.85672026510290
H        -0.36214112795361    4.84614435564385    8.03464428669982
H        -0.69277051485752    6.52248804836049    8.53944143920208
C        -0.96837300132861    5.00557014933438   10.10400745029982
H        -1.87484308995191    4.45071918590995    9.87211834121772
H        -1.22918633281347    5.81083219719375   10.79134708276083
C         0.10086897492968    4.08484828919124   10.72720672386286
H         0.25687322879387    4.33179273224892   11.78303400958984
C        -0.33842982074398    2.60710105722777   10.62877890031426
C        -0.04368695071380    0.56116346791277    9.38017531310114
H        -1.12626414882241    0.41147625149256    9.44951785219467
H         0.43674822224116   -0.05952996955292   10.14646163904271
N         3.07040683166630    3.32182879428370    7.43842909780805
H         2.67486566846700    4.01766385894594    6.80322778720871
C         4.30484134184194    3.82828754023680    8.05559373546641
H         4.93937795269750    4.33010047481236    7.31203437511374
H         4.09710032177283    4.52639904139709    8.86882817299652
C         4.96280085171051    2.53453115645188    8.51276433067219
H         4.37798135173406    2.10971232815054    9.33491560624998
H         5.99504523519826    2.66146801203886    8.83001251848633
C         4.81914731350852    1.66407548117575    7.26561730552371
H         4.79176364205381    0.60166868728314    7.49770262378391
H         5.64698358637407    1.84063521371058    6.57828995094505
C         3.48723435785375    2.12970509477074    6.64224767714693
H         3.62322737548275    2.38823737902265    5.58642586336612
C         2.42706364236982    1.01043195605021    6.74059533678022
O         2.44170570565837    0.04545183498740    5.99063057847698
N         1.57101414645412    1.21842623671398    7.73770002335086
C         0.50773358534861    0.24281682102974    7.98907636242115
H         0.91931576289517   -0.76959322895445    7.91969456433680
H        -0.26999394312486    0.34863605083386    7.22277593811266

