45
CSD_code = OFAGIL | q = 0 | S = 0 | Stoichiometry = C20H19BrMoN2O2 | MND = 8
Mo       13.44050420898808    2.55540410753785    0.09163850319344
Br       15.32045723569454    1.78431740839430    1.75156878818867
O        12.00539978044457   -0.13592662394787    0.58967571356994
O        11.79998792394676    3.48695197110154    2.53878219310864
N        14.69872793568183    4.20712882064365   -0.13758212466103
N        14.82975270478195    1.94312414995366   -1.34210552177636
C        11.98910106774505    2.01311466517107   -1.67146004815494
C        12.32301341374425    3.38984623849527   -1.63352791949364
C        11.86774902383975    4.18868860891988   -0.55977204742661
C        10.44064804017511    4.20110737912272   -0.05546081006916
C         9.45970488845640    4.55789735680677   -1.18008327196283
C         9.23118074385660    3.54418460707307   -2.26150394750352
C         9.64901375820956    2.29406524706070   -2.39141567405723
C        10.56366943399348    1.52467633864373   -1.47307057834402
C        14.67398691186259    5.28513831995539    0.64769922711405
C        15.54212247883351    6.34620306469155    0.51229133889404
C        16.49445414695553    6.30704587429964   -0.50334120458717
C        16.55999280013072    5.18222328042951   -1.29550783736842
C        15.66368532920947    4.13032863947019   -1.07862145511516
C        15.74074649294236    2.84958760672316   -1.75618613752940
C        16.72601429327592    2.52258806188973   -2.69371272945975
C        16.80596144234540    1.23524569918578   -3.17684422490762
C        15.90725857489374    0.28937973678801   -2.68937935957403
C        14.94621144949079    0.69103431478085   -1.78789168994749
C        12.54804365741770    0.85963887072537    0.40662014684116
C        12.41537193202915    3.14502823849225    1.63150185549776
H        12.45708099761477    1.47790395392578   -2.50331304610500
H        12.94908689220736    3.82695575573449   -2.41662569812949
H        12.25683683202909    5.21175265014836   -0.59242404920620
H        10.13440618567898    3.26797393415729    0.40957209708053
H        10.35897110206029    4.97462453600085    0.71355050388862
H         8.48484281367996    4.77461633707349   -0.72879481293625
H         9.79342488898713    5.48544171521010   -1.65908057610398
H         8.58619058028565    3.93228782007616   -3.04274584180822
H         9.34157072828338    1.75388842624934   -3.27784684765326
H        10.51842247926333    0.46476896854039   -1.73118938165229
H        10.22747870132228    1.61193519086100   -0.44183932828605
H        13.91934454335773    5.28777195873714    1.42402828818976
H        15.47499808839309    7.18912737670660    1.18055020158403
H        17.17658638970579    7.12887934532679   -0.65481601965179
H        17.30508204724467    5.11007792392216   -2.07062887320521
H        17.42720178114742    3.26944369170137   -3.02795509874056
H        17.55874409121718    0.96304577311584   -3.89993053099240
H        15.95255567840792   -0.73868689565860   -3.00974855973422
H        14.23221551017464   -0.02063044424118   -1.39307361101997

