77
CSD_code = OFAGOR | q = 0 | S = 0 | Stoichiometry = C36H35BrMoO2P2 | MND = 8
Mo        3.63140047932697    2.45530247641855    2.04327404679501
Br        5.42081109578490    2.75387164424857    0.08148292768459
P         4.06494406835771    4.82325895509198    2.02001987375355
P         1.97176349218357    3.34477926062791    0.53664269385336
O         5.76793597640359    2.54672243128440    4.26525009447751
O         2.10427228311564    2.48965922574405    4.69582094367605
C         2.71100874181999    0.32282062996010    1.89946889954213
C         4.08980212218071    0.37838714419548    1.66641153340111
C         5.05584784109130    0.70100071519807    2.74493725775362
C         5.00124895657083   -0.14631406430772    4.01990592763208
C         4.97913533730782   -1.64867889319987    3.72699575721580
C         3.68535729392572   -2.29793695215913    3.32903534737613
C         2.48063949675634   -1.79932071174779    3.09389404374127
C         2.06977384784201   -0.34954981178672    3.10181236875287
C         5.73944792546136    5.37017025722430    2.40669717781330
C         6.08416680233147    5.38157655117503    3.75838597173398
C         7.37107426541188    5.70347190427031    4.14088147046449
C         8.32120848135265    6.01257299966948    3.17935435717166
C         7.98165987525967    6.00028093900681    1.83725709501483
C         6.69443625139484    5.67650808176222    1.44449764612787
C         3.05347971069392    5.94696265704055    3.04708849574035
C         1.75766545385019    5.57074144168099    3.38006184255641
C         0.93594526372293    6.43145133198617    4.08574321616042
C         1.40403493305690    7.67827235950266    4.46473166304497
C         2.69006344842370    8.06641844878093    4.12387049776278
C         3.51043664639630    7.21076554778532    3.41226655900126
C         3.63071156286380    5.57690935448654    0.39338903997355
C         2.21096527533744    5.12650694922602    0.06597997082151
C         0.18591319094438    3.33587409333384    0.89969668181066
C        -0.70956317612941    3.96296563585278    0.03705371103373
C        -2.06384369289025    3.93905412773192    0.30980056426566
C        -2.53630841671564    3.28495171330846    1.43748162031043
C        -1.65121092088665    2.64704086655098    2.28946343685964
C        -0.29371472707878    2.67088922792776    2.01962296337447
C         1.93718004260147    2.47864926266882   -1.06423583519832
C         2.79416009600391    2.83244593798848   -2.10145943071383
C         2.80210323437714    2.09807549237648   -3.27336887365604
C         1.11012902418244    0.64736884176064   -2.38716750656366
C         1.96369753312425    1.00576275990426   -3.41823813589792
C         1.09724280839907    1.37691209375276   -1.21341088732796
C         5.06084901547679    2.25959783431622    3.37175187979042
C         2.59170654678199    2.47927710032615    3.65143918763326
H         2.14384249612343    0.08490028621503    0.99370018787089
H         4.49704260931393    0.07695753926295    0.69998256644175
H         6.07298117094346    0.64918952433044    2.32454971129948
H         5.90928502600215    0.07608912027466    4.59118884201851
H         4.16177323514543    0.12951230896448    4.65772775842286
H         5.32325012444083   -2.16772456914819    4.62873590136003
H         5.71711258969472   -1.86854865355651    2.94601827295925
H         3.79736138632466   -3.37359248542011    3.24264965697724
H         1.69837024317923   -2.49408627846382    2.81596648563008
H         2.33311032140247    0.10781359554490    4.05229257629046
H         0.98376527193888   -0.28558667761313    3.00444071894799
H         5.33208161380290    5.13384065124982    4.49764956637757
H         7.63676274063494    5.70504644549964    5.18756233535973
H         9.33000436041416    6.25757626497565    3.47793957976001
H         8.72392784703793    6.23375357379104    1.08830914621449
H         6.44787691291548    5.64405663243200    0.39389895787490
H         1.39491485906184    4.59291191724147    3.08505689880053
H        -0.06818767189590    6.12577800694489    4.34090201323421
H         0.76786723009490    8.34857388975941    5.02350732384760
H         3.05473302529761    9.04146686852516    4.41253730920097
H         4.51182846475561    7.51951055246768    3.14415491633187
H         3.70059659605087    6.66896866442059    0.46349686316378
H         4.33724314502879    5.22434642471468   -0.36192751560612
H         1.97440635599837    5.27813277487433   -0.99255265014239
H         1.49481726071490    5.69764978917843    0.67095443851690
H        -0.34406253362326    4.45928443033686   -0.85145455147325
H        -2.75560277380731    4.42844471477172   -0.36017782706962
H        -3.59558142400167    3.26903613576022    1.64692271494235
H        -2.01665447446420    2.13033326983167    3.16466611610357
H         0.40667098598167    2.17295583955367    2.67613248677085
H         3.47201289651168    3.66616230186826   -1.99368251011102
H         3.47451028636318    2.37597612740402   -4.07093235728657
H         0.45483809975678   -0.20473073675460   -2.49641177382031
H         1.97692030456092    0.43082475360884   -4.33223898743853
H         0.42480393189244    1.10230113616114   -0.41005126654579

