43
CSD_code = OFAGEH | q = 0 | S = 0 | Stoichiometry = C16H20N4NiO2 | MND = 4
Ni        2.92419047746428    2.27843528450888    5.39993971401249
O         2.04891584654384   -1.19270615087314    3.74855602784281
O         0.35043421477538    4.62071082938100    7.25142102748461
N         4.47936438071216    1.28842558557051    4.67094896238119
H         5.20843419638457    1.81888650041321    4.18765827596115
N         1.94099950826607    0.84769226356365    4.81665973908995
N         1.35417884921124    2.87335031637408    6.13092120354780
N         3.66354955053050    4.01798678380440    5.99966385238227
H         4.61070055655619    4.03225654390895    6.38608166212081
C         5.14725296450327    0.50604430406603    5.73043593562470
H         5.79996339787993    1.13793033275467    6.33565893214945
H         4.37814340191820    0.06201123659024    6.37097136110785
C         5.89802363525546   -0.59154381381095    4.97537054656864
H         6.12197741259113   -1.44411307720062    5.61152216640082
H         6.83998854032416   -0.20007860973982    4.58461653433030
C         4.94214907092981   -0.94642057393557    3.83097455667404
H         5.47545851119245   -1.12100796076242    2.89814604355275
H         4.35653912414537   -1.83906813538184    4.05302348848210
C         3.98376327534223    0.25318306681661    3.72910384918201
H         3.94006489979295    0.66308866217935    2.71543855574463
C         2.52677470123994   -0.13117483843023    4.11020976293503
C         0.58226718531677    0.87569837956878    5.18496023237030
C        -0.38326433430314   -0.07488945906060    4.89369199727689
H        -0.12084980137558   -0.96338721438598    4.34435281302896
C        -1.68377994923758    0.14477513384314    5.32300455895097
H        -2.44269500066652   -0.59098381926485    5.10063572399853
C        -2.01710306879191    1.28807501571981    6.02780743678557
H        -3.03546509878849    1.44219081398766    6.35326478188234
C        -1.05998260452790    2.24657017002484    6.32633717443443
H        -1.31602580212560    3.13705106370964    6.87548181291997
C         0.24339000577946    2.03840308380800    5.90376735732643
C         1.32091630912778    4.03157029096543    6.80751878732432
C         2.75557798046070    4.58802933653672    7.02701510457823
H         3.06635408336945    4.25665530560907    8.02258151409413
C         2.81027507492068    6.11865842081849    6.87914174659819
H         1.79310686286572    6.49020682207480    6.75094840965444
H         3.23172663388931    6.59760074681197    7.76122655148421
C         3.66866561831213    6.36359002469257    5.63315996511986
H         3.28459754355971    7.16996088704269    5.01352328545987
H         4.69581622681170    6.60776044543052    5.91371770016536
C         3.62898356977463    5.01589640695928    4.91171323754826
H         2.68300204279569    4.90727785489238    4.37128958827086
H         4.45932000727409    4.87240174042232    4.21783802315010

