79
CSD_code = OFAHIN | q = 1 | S = 0 | Stoichiometry = C34H41N2ORu(1+) | MND = 9
Ru        9.45477266416522    0.62540493687112    5.05631357546613
O        10.28934123648204    1.21448178389333    3.23363516695561
N         7.86956576784712    1.73646836680972    4.52737596859795
N         8.30631105516172   -0.84123198052583    3.96262452357066
C        11.45215188112863   -0.24250770943056    5.94502110480661
H        12.21891374983111   -0.88286851245111    5.52536301952343
C        10.39914578321771   -0.80013284647413    6.69570768763706
H        10.37528007315063   -1.87159014209556    6.86247415196165
C         9.45876919183288    0.02255905735387    7.34262652546088
H         8.71239276073712   -0.40658803962282    7.99983771778225
C         9.54982188362882    1.41925186259276    7.18460685130106
H         8.86555082698170    2.06484619302882    7.72696508691359
C        10.64722605271651    1.99137612215259    6.49136559700581
H        10.79775749415577    3.06423934431436    6.50708936887163
C        11.58731289833281    1.15949479983425    5.87221465960193
H        12.44571996141512    1.59084530218567    5.37088546120685
C         7.85456790268617    3.06827340150931    4.57194429450285
H         8.68820990712557    3.54511705155731    5.06872121824230
C         6.84128558137597    3.82232114282703    4.01044243590341
H         6.87650407602104    4.89759599725164    4.06976885164643
C         5.79498200659426    3.17428623382585    3.37268593208566
H         4.99442202843789    3.73445753446073    2.91740603299905
C         5.79563587207813    1.78886336505621    3.34520535618348
H         4.99587094591412    1.24141834732116    2.87336426597851
C         6.84579155124708    1.10180521895522    3.93101350307156
C         6.90492780196821   -0.39442811497360    4.04034038623576
H         6.50677227301651   -0.66960085985864    5.02564165535309
H         6.29219686800315   -0.87698101279816    3.27133130419750
C         8.45619424158914   -2.18831208306028    4.55943226379397
H         9.51492845595013   -2.45541325732013    4.48785475279384
H         8.16937208733728   -2.11926681466576    5.61349478667869
C         7.63130121127596   -3.27215220895943    3.90159062721312
C         6.33735724182163   -3.54020570965310    4.33385861390936
H         5.91491705808626   -2.98534713312444    5.15964886586494
C         5.58523517402451   -4.53283765305972    3.73012165689127
H         4.58350859499262   -4.73144900788943    4.07861641128611
C         6.11955746254534   -5.27390837356304    2.68995299009564
H         5.53386092391349   -6.04889248372850    2.22108324451443
C         7.41408412749592   -5.02754206398132    2.26506636242709
H         7.84312295182031   -5.61240361750492    1.46639098091027
C         8.16640358499178   -4.03551265284591    2.86933023186364
H         9.18182549225296   -3.86343066424338    2.54292544211690
C         8.71432832974407   -0.88588345378811    2.53745672990645
H         9.76898477977576   -1.18906436743893    2.51994594781114
H         8.11110791383394   -1.63462092898105    2.01299015177614
C         8.58716577215054    0.43502692493168    1.83387247143121
C         7.65958833387852    0.63979359623242    0.82871831775283
H         6.97519240524662   -0.15868033983574    0.58928310695014
C         7.62964766454243    1.83906023714528    0.13366211123531
C         6.61385801680132    2.14261278877612   -0.95496195523122
C         5.61077661867659    1.00365359275994   -1.15607343987762
H         6.11040918774866    0.09440540833813   -1.48090433725776
H         4.89664364308784    1.28407501560385   -1.92654818656895
H         5.05493429694476    0.80111266629797   -0.24275226281163
C         5.83057818891721    3.40638265885936   -0.57276782501698
H         5.11861799713493    3.65335001049648   -1.35641469445312
H         6.49086494999349    4.25743002251696   -0.43353762043745
H         5.28240023346743    3.24261545957417    0.35290168785964
C         7.35058089255032    2.37016121863840   -2.28233187345330
H         7.95247268594250    1.49947513359809   -2.53248202472758
H         8.00589441852603    3.23460542274409   -2.23046142345423
H         6.63397884987828    2.53576194972053   -3.08304079058620
C         8.61453872382755    2.78058379534432    0.43330895192600
H         8.63428270537758    3.68596835922645   -0.14775246662471
C         9.56597940212072    2.62059462585951    1.42310890469212
C        10.70710077590997    3.60783112033203    1.62223163680696
C        10.67926153543146    4.76442855225148    0.62042095830102
H        10.74697532053745    4.40034166636974   -0.40150134121275
H        11.53405887025066    5.41224575381884    0.80068639406800
H         9.77819607423842    5.36397649334084    0.73041216235797
C        12.02495372508280    2.84223096904183    1.43483888544011
H        12.07516453417326    2.41921341636154    0.43413640317907
H        12.09661161516324    2.03300748196911    2.15632368348588
H        12.87160133469141    3.51078494921555    1.57134473621645
C        10.65786149306525    4.19712932669604    3.03711610717732
H         9.74552323700322    4.77482944838582    3.17226905707920
H        11.51008154606054    4.85429793396012    3.19414016459805
H        10.69499932749408    3.39759502459774    3.77248088454190
C         9.51031589738325    1.43646494706738    2.20294185369398

