56
CSD_code = OFAHOS | q = 0 | S = 0 | Stoichiometry = C24H20CdClN5O5 | MND = 7
Cd        3.47601607935074    1.32231084338053   13.87399208872488
Cl        2.53005387415907   -0.79788089549119   13.57793422281614
O         5.53992634273379    0.93352312607430   13.91533090351200
O         6.47657703746140    2.99564095032053   16.55735695537991
O         3.27252608271876    1.71908149183382   11.42914392916294
O         0.09629479443587    0.32276307449044   11.15851569062361
O         5.53868041289985    3.21058629527854   13.61539039854902
N         5.47936457097288    2.36518675029938   15.73991779092422
N         4.23273898975373    2.49847240707735   15.87927084269992
N         1.68298208529771    2.31139632762221   15.40055444080801
N         0.99885955053860    1.69010638102296   12.93364211701289
N         1.07315504192898    1.18055156049505   11.74291551528541
C         6.01522210494115    2.04769424995786   14.36101450514469
C         7.49320417146658    2.18505499629996   14.65069238198782
C         7.65225553935278    2.77090983012519   15.90513970291062
C         8.90257302577704    3.06376570537326   16.41469069970270
H         9.00739061126139    3.51974950816532   17.38565688679028
C        10.00345845308047    2.74775558063664   15.63246514615400
H        10.99246987788581    2.96695475887735   16.00603247457488
C         9.85613387154636    2.14796123113638   14.39207937808309
H        10.73120507993982    1.90095042958049   13.81061680242099
C         8.59458763347031    1.86143171729656   13.88777900303969
H         8.46698514056259    1.38587139895885   12.92849404941669
C         3.48676836577054    3.00202163362171   16.79987673775760
C         3.97565195018783    3.67112567051016   18.05499712866484
H         5.06028467398428    3.68874318080791   18.07432825030796
H         3.62295316631731    3.13342229024923   18.93518863545322
H         3.61148211423812    4.69690624110512   18.10719738576901
C         2.05806872358289    2.87448565898462   16.55401212764997
C         1.09769278083768    3.32811955209817   17.47439883559268
H         1.40023730167783    3.77174313612569   18.40791415123693
C        -0.24018527589275    3.19732847576459   17.16733155181072
H        -0.99489226332481    3.55075217295381   17.85471495475128
C        -0.61217666870481    2.60783731878186   15.96772429468150
H        -1.65240301481299    2.52189767983600   15.69921487225531
C         0.39314233065631    2.16760877902235   15.10800724237636
C         0.09829426751876    1.51369583449998   13.82141235425128
C        -1.11502001908862    0.65517726910976   13.66468280306469
H        -0.78177668186455   -0.35951772385076   13.44513418314371
H        -1.72996125343223    0.99250059081659   12.83123632023960
H        -1.70904737122275    0.63523337201555   14.57210894895922
C         2.27837678499567    1.11151255733885   11.06667533377960
C         2.02225746311803    0.23161437086414    9.94320333289032
C         0.70029832802088   -0.21262696645849   10.07778356574525
C         0.13587273226507   -1.09365418400454    9.17024045942225
H        -0.88105461799071   -1.43038266826681    9.28405760515436
C         0.94031605745683   -1.52836903149682    8.13237093587682
H         0.53433985318222   -2.22205568344341    7.41179899007628
C         2.26067781666179   -1.10246990052943    7.99602183377791
H         2.85196441861317   -1.47469131571743    7.17390917932697
C         2.81968165789900   -0.22099560949051    8.89894011406695
H         3.84101104054142    0.11344425308604    8.81673009663482
C         6.01489998812848    3.24979687082242   12.28487488015361
H         5.90666830217704    2.26827662061634   11.81472511335669
H         7.06479945147426    3.56628652089947   12.26227137961109
H         5.39751722549128    3.97509531452954   11.75939047644540

