56
CSD_code = OFAHUY | q = -1 | S = 0 | Stoichiometry = C23H21CdClN5O5(1-) | MND = 7
Cd        1.80214608538524   12.14424148186086   -0.00001741061097
Cl        1.70040864387954    9.78532822805906    0.00018956208231
O         1.33949856043688   14.75565808279709   -0.00003931050901
H         0.83575803946728   14.41796438098061    0.75532058803846
N         2.69708856876566   12.37759244955980   -2.14819414303927
N         4.16108278338415   12.44354786975614    0.00001472046619
O         0.15043624128304   12.79189593454981   -1.66208716048984
N         1.82903466071387   12.32173509665642   -3.16324859097831
C         0.54198722166827   12.45158084924624   -2.79828277262412
C        -0.43757923521171   12.24463239569999   -3.89498235861441
H         1.75985520690285   11.91371875362999   -4.73398137741579
C        -0.05576576479040   11.92808933820447   -5.21122470643086
O         1.22582792648837   11.77803986322194   -5.57588164856317
C        -1.04524608865413   11.76903394055376   -6.18305558420290
H        -0.73507035824531   11.52953853138408   -7.18941900207485
C        -2.37989940125702   11.90569113129730   -5.86200191032082
H        -3.13018019294352   11.77353345722239   -6.62982994202284
C        -2.76027212337502   12.20632938360145   -4.56210643706569
H        -3.80606684174014   12.30740486862100   -4.31033672491476
C        -1.79133810032871   12.37334557587351   -3.59455405387695
H        -2.05543542980503   12.60489326452007   -2.57302802501275
C         3.96744384015933   12.42912646424914   -2.35427135785848
C         4.60140781231032   12.50391430735339   -3.71770648922759
H         3.83581905208461   12.71495357339877   -4.45978991335181
H         5.07520810590715   11.55474382933787   -3.96799602559294
H         5.35423882231062   13.29021529506509   -3.74803992593491
C         4.80466753737025   12.39434140178629   -1.16193380169129
C         6.20324267676470   12.30194248908428   -1.19904726780600
H         6.73329587831736   12.25369220432463   -2.13651710024397
C         6.89198593085542   12.25597956863923    0.00003763271515
H         7.97147580623014   12.17834814987780    0.00004399430577
H         0.83573897694354   14.41805168773461   -0.75541925333368
N         2.69705892446357   12.37771666230785    2.14817366174370
N         1.82898017813149   12.32188607071495    3.16320031351767
C         0.54192992743487   12.45171838563240    2.79823154152549
O         0.15039092639697   12.79206196353529    1.66204017218673
C         6.20322203294074   12.30187431483634    1.19911226430935
C         4.80465174569910   12.39432861469762    1.16197262761657
C         3.96741015038229   12.42916802731315    2.35429414790367
C         4.60133746381575   12.50392557498113    3.71774643624833
H         3.83573463688143   12.71498560701213    4.45981227519916
H         5.07509997734642   11.55473738312895    3.96804836259717
H         5.35419217979908   13.29020660550207    3.74810529038446
H         6.73324844006565   12.25353889629747    2.13659304394952
C        -0.43760236605544   12.24472195061200    3.89493817404638
C        -0.05571643519593   11.92802288694255    5.21112846244034
O         1.22588099997619   11.77788680067932    5.57568566170762
H         1.75985198364633   11.91368668478014    4.73371996228041
C        -1.04515295985024   11.76888541003729    6.18299192604766
H        -0.73492656240260   11.52926609325062    7.18931045974063
C        -2.37981700248157   11.90561726427673    5.86202380877625
H        -3.13005715070042   11.77340902836555    6.62988174750878
C        -2.76025583193948   12.20641596158293    4.56218345864193
H        -3.80606318953673   12.30755169727525    4.31048916661493
C        -1.79137189251577   12.37351207059585    3.59459508948926
H        -2.05552101757178   12.60517219749102    2.57310774172242

