67
CSD_code = OFAHEI | q = 0 | S = 0 | Stoichiometry = C26H29CdN5O6 | MND = 7
Cd        0.89752878677695    6.54333817436462   13.93212902447384
O         0.74357286943464    8.62062208702858   14.90200693427432
O         2.08685059522810   11.72850538161229   12.42623588843459
H         1.71743665690928   10.83157318426825   12.20909386449445
O         0.94179351316399    5.75904941635344   16.09113668825275
O         2.76792922234037    2.00393178572922   16.48490693858155
H         2.30524172107143    2.42950513210802   15.71488468753961
O        -1.37568161595097    6.74822332730909   14.79470010471653
H        -1.07161230243741    6.26830894372302   15.58026591932839
H        -1.15605279438242    7.67045831210487   14.99838449816748
N         1.10570267349173    9.37651702812271   12.76749509910218
N         0.83691865927837    8.14241137472240   12.34216538323990
N         0.57629353012975    5.64241598602587   11.82817466289902
N         1.11205494449506    4.29465671319718   13.94427275737741
N         1.50448269037218    3.76761786902912   15.10400259086345
C         1.15150909499579    9.50009901268791   14.10311443341547
C         1.66063196538906   10.79098084528424   14.60948831984975
C         2.09620957342926   11.82769890798476   13.76379173917006
C         2.56468136873425   13.01359231424222   14.33260864081911
H         2.89003161232626   13.79847430351017   13.66771868587458
C         2.61181060053140   13.17033666625784   15.70125875368624
H         2.98007650500382   14.09529501677015   16.12013490962656
C         2.19025383441572   12.14647153890898   16.54011626375771
H         2.22979377756554   12.27014476083749   17.61161781848769
C         1.71916400053002   10.97385122890584   15.99253823127044
H         1.38544830165698   10.15985620513993   16.61903944419654
C         0.49504221685143    7.88589219405735   11.12517708261667
C         0.25546382068670    8.92826125645146   10.07339168293352
H         0.31278373503330    9.91651468279812   10.52201295421928
H        -0.72860388443010    8.79823479239471    9.62616344831019
H         1.00503152828358    8.85556838643939    9.28586455252681
C         0.35345797471107    6.46752536570622   10.81001554587580
C         0.02656110002722    5.95875440025532    9.54740378533366
H        -0.15377420710891    6.61524220244371    8.71236354496845
C        -0.05706496491516    4.58425536556743    9.39573267507768
H        -0.30847586751175    4.16507114816040    8.43203364148615
C         0.18377662795763    3.74347086267629   10.47012690334352
H         0.12552951227134    2.67390514343487   10.35430839373878
C         0.50653664947951    4.32084214212846   11.70398929906815
C         0.80261221704078    3.57196379835443   12.92177263176437
C         0.74201164296815    2.07320388640916   12.92876573099176
H         1.51457381921789    1.65666963721275   12.28310522169408
H        -0.22768525706105    1.73003702803006   12.57203250033462
H         0.89642693310053    1.70824704580417   13.94073543745995
C         1.49436052869870    4.63144311521406   16.13111537487915
C         2.13011452233967    4.15480014791572   17.37605401934967
C         2.72715344537399    2.88633379751708   17.49442538141924
C         3.30902849465640    2.52291249553502   18.71031872764569
H         3.75841145680381    1.54472264180073   18.78305957220437
C         3.31127823841644    3.39209737648170   19.78018818319221
H         3.76977664775269    3.09153002597628   20.71083237858322
C         2.72985874278091    4.64834149123185   19.66538561898219
H         2.73409799132002    5.32825888872301   20.50366170621579
C         2.14592027860574    5.01719101649616   18.47385614779022
H         1.68607503814624    5.98715005429152   18.35474164395320
O         3.41386767478749    6.83114034603396   14.09467565733750
H         4.18588313861816    6.70655081587245   13.52514992322256
C         3.89062023821092    7.30283051271496   15.35810478590302
H         2.98395664672130    7.44310405238432   15.95617016331726
C         4.61579046836281    8.63468983966930   15.18786845920236
H         5.52767175258675    8.50096546677855   14.60615496169078
H         4.87974117948681    9.04404940279838   16.15829618389557
H         3.97460423250087    9.34916485934269   14.67684452415993
C         4.79029327930129    6.25498812461246   16.00795079168180
H         4.27499908145756    5.29865413021106   16.06013235309324
H         5.05164963336917    6.55829112451287   17.01725109199351
H         5.70707390861018    6.12949541938032   15.43218503669517

