67
CSD_code = OFAJUA | q = 0 | S = 0 | Stoichiometry = C26H38Cl2Ti | MND = 12
Ti        4.29623776645594    4.78018269846104   -2.97476990072639
Cl        5.15757966808455    6.75608513934294   -3.66431470936510
Cl        2.42878616786314    5.87587464624567   -2.37330435740574
C         4.49564539689864    2.87937429891436   -4.40029598618858
C         4.82811761387054    4.08492359462857   -5.08739244150191
C         3.62774726901459    4.83463429266535   -5.25891939706689
C         2.56563689177813    4.10807823963637   -4.67101321617309
C         3.10231123866692    2.93087718870200   -4.08623953465603
C         2.24995004066252    1.80673438764456   -3.55408264139929
C         1.44906953290709    2.19402893516310   -2.34202183486315
C         1.25418833881050    1.40973619407587   -1.29129913093571
C         0.45327485871782    1.76888673308532   -0.07647089623325
C         1.20161333724905    1.54570213945573    1.25516858758713
C         1.80496208898871    2.79102978803650    1.92140664268953
C         3.15309660772266    3.25653203017700    1.36435858046853
C         2.98540212928525    4.01648977367703    0.04415760674997
C         4.26510529593567    4.23058107804339   -0.71377936105577
C         5.02109887248517    3.21212380425821   -1.36269242104576
C         6.21547239189821    3.81000424638312   -1.86851200975815
C         6.19787692737440    5.18094509206586   -1.52003956208861
C         4.98872808166286    5.45161283179957   -0.82667541243036
C         5.30694273548619    1.62191271260341   -4.54326362395237
C         6.12866033238251    4.37253761805188   -5.78118003804558
C         3.44032113883911    6.05666649659799   -6.10499445362145
C         1.11753281893127    4.44274664874214   -4.85157188103242
C         4.82647698147462    1.73946705350897   -1.15146225009615
C         7.46949142605237    3.11039719340335   -2.30745667080803
C         7.36504557290762    6.10667028496916   -1.66535681473966
C         4.65036315379601    6.77450409516414   -0.21016714023790
H         1.54875031374706    1.51591511724527   -4.34935463658607
H         2.85788119113646    0.92877258055900   -3.32767972971098
H         1.01287854150117    3.18560512349391   -2.37337111208571
H         1.66999676616013    0.40751510255537   -1.27953352538096
H        -0.43350780943321    1.12648475376411   -0.07656615633704
H         0.10542911739176    2.80057089915575   -0.14544922294997
H         1.98885579707548    0.80238813514393    1.10942494910301
H         0.49149268594242    1.12002104904936    1.96801360257898
H         1.08831795054789    3.61331690750464    1.86842482420431
H         1.94599453369430    2.55230371320539    2.97905984224000
H         3.79974315093889    2.39062535118401    1.22639097345830
H         3.63563593450632    3.91034095780459    2.09472932625278
H         2.51500389352972    4.97888423287905    0.25562489365260
H         2.30562241400865    3.45145566582859   -0.58675586359752
H         6.34697623556286    1.75110591366687   -4.25818240080577
H         5.29257974327502    1.33318765399696   -5.59833525649988
H         4.88372194264361    0.79648317710560   -3.97735273416063
H         6.02032760681657    4.20191970203773   -6.85516071941929
H         6.42836909949823    5.41086945466195   -5.63192469420950
H         6.92245152370590    3.72355046594262   -5.41557001994659
H         4.39407772579425    6.51825612264242   -6.34826709864254
H         2.81999454763996    6.79019412775184   -5.58812308164459
H         2.94068371944784    5.78163529229106   -7.03778669388855
H         0.78604915302304    5.20223870810044   -4.14187904842129
H         0.96199000724513    4.83668615328356   -5.85595015538089
H         0.49651060139357    3.55846219377935   -4.72426407583444
H         5.26530341366368    1.14985812737044   -1.95038856084962
H         5.32846504376183    1.44787540282519   -0.22407466952622
H         3.77300021180499    1.49215632711640   -1.06160990959358
H         7.33556864271814    2.03240107262209   -2.34685483086011
H         8.26005015787882    3.31885069334042   -1.58277119056898
H         7.81981240252559    3.46807591294799   -3.27676712240659
H         7.05698844714315    7.14489670643773   -1.57404257335109
H         7.85304403449718    5.97582988156313   -2.63037445312396
H         8.09500716142449    5.89205267516104   -0.87973138128866
H         4.76406323753433    7.57657657486716   -0.94222666092561
H         5.32206832088864    6.97769815256453    0.62683203223530
H         3.62596786316342    6.79100068304814    0.15543140220415

