69
CSD_code = OFAPUJ | q = 0 | S = 0 | Stoichiometry = C26H36Cl2N2O2Ti | MND = 6
Ti        4.33652316917751    1.79641292407322   24.33285230909534
Cl        4.25546131586637    2.03132387951947   26.50430444276316
Cl        4.37724176956675   -0.38886643293978   24.30178881859439
O         4.98271604598177    1.84026978803349   22.47669777311427
O         3.72799943603935    3.65257048866073   24.10449754060090
N         6.25997858152818    2.25946912910068   24.16010302814689
N         2.42650201809426    1.96023982198118   23.81568304670180
C         1.35533591064828    1.11230774962384   23.50711517981339
C         2.52406648058151    3.25402986475736   23.91687193700702
C         1.42667094048906    4.30860195591423   23.92002032645398
C         7.29870083699052    1.91341837558902   21.85202964461665
C         7.94887938345306    1.65008492657275   25.78479869170340
C         6.18334495282788    2.03924831127029   22.87983325535637
C         0.69254199851534    0.43165609632527   24.53658625319782
C         6.98415825733755    2.90101926456280   20.71976260981177
H         5.96912058035232    2.74375514099254   20.36172988333626
H         7.67833005306042    2.75558184276122   19.89508136277879
H         7.07143162040946    3.92737987122695   21.07133974287126
C         0.02541926291362   -0.02673637414387   21.86951868046300
H        -0.22100201632866   -0.22525974231874   20.83648397661637
C         8.66566606312348    4.33439219337529   26.00616067615015
H         8.93107376543160    5.37631557054068   26.11228056933475
C         7.20613717893169    0.47393807636899   21.31882022996102
H         7.42874353524765   -0.24134043771389   22.10918085060440
H         7.91623026049536    0.33068622218482   20.50733045333699
H         6.20071319178861    0.27498537481355   20.95296226302641
C         1.05109839083108    0.85858682244355   22.16322588296960
C         7.32203206036378    2.62426468647037   24.99711434085660
C         7.48861508876994    0.22647073596847   25.71108943018454
H         8.16566472813471   -0.42793280581751   26.25463703045672
H         7.41421324917115   -0.11832155865852   24.67791535146395
H         6.49038664901264    0.14303393921217   26.15610364945703
C        -0.67130332946671   -0.66464176479307   22.88050343233849
H        -1.46950934347469   -1.34922578541162   22.63635564975053
C         1.78366258711936    5.33669637949357   22.83749043453591
H         2.80134603078690    5.69151003622710   22.98423726680081
H         1.10166201698827    6.18255816736282   22.88767375887696
H         1.71264960433199    4.89076281109050   21.84715613337501
C         8.95895283185833    2.04419491709573   26.64907112168121
H         9.45399775863025    1.29998635979542   27.25549862955136
C         0.02094985552692    3.76101027991926   23.68453151862604
H        -0.06571802090308    3.28555737750479   22.71136543872091
H        -0.68975299304804    4.58477113526340   23.72529664183418
H        -0.25438355599512    3.03660407761949   24.44650269368912
C         9.32693545856287    3.37403919267761   26.75102622751899
H        10.11641004660070    3.66529820957429   27.42725794719628
C         1.85362197127722    1.51959168355821   21.08217574958495
H         1.58404143459493    2.57242851306879   20.98222958223794
H         1.68115599916242    1.03091715844796   20.12622981839625
H         2.91776893444432    1.47024525271213   21.32785765790724
C         7.65135820556345    3.97955285205638   25.13015522405907
C         8.69950095436507    2.17012386849457   22.40265779259870
H         8.80035169429989    3.18250774470123   22.78423878450394
H         9.42368913016351    2.03490161716796   21.60106565632314
H         8.94388873014885    1.47574199916039   23.20223449429477
C        -0.32786891324864   -0.44578488179708   24.20279989279558
H        -0.85076580486958   -0.96992376702760   24.98926870068794
C         1.49929672116495    4.97394669107032   25.30452383421678
H         1.24843523806099    4.25829377580717   26.08603392449709
H         0.80067720492774    5.80617258976581   25.35517344627787
H         2.50666673194369    5.34137115185656   25.49001645136753
C         1.12617153230826    0.62949576747931   25.95671017517942
H         2.11448741249542    0.17812890129046   26.10178016624782
H         0.42681529564656    0.15996913795221   26.64406605605889
H         1.21249146396169    1.68885272946753   26.20621508805455
C         6.88695068135110    5.00981069230133   24.35300721156430
H         7.06718555734769    6.00326693966379   24.75675132234181
H         5.81710428066259    4.78916263942802   24.39701793692631
H         7.18408183790411    5.00811984920243   23.30280490852876

