52
CSD_code = OFAPUH | q = 0 | S = 0 | Stoichiometry = C19H26Cl2FeN2OSi | MND = 4
Fe        2.58979906093690    9.02071232366170    9.66601788868813
Si       -1.04246941115384    8.10853148344181    7.29145733215124
Cl        3.06671407340126   11.03377494563487    9.22963380698863
Cl        3.63476507991061    8.31917929412004   11.25458330564430
O         2.65435586115061    6.59784832931054    8.77479668669677
N         0.63465457202398    9.15926217836179   10.94186503771170
N         1.51521096870763    8.91752273807242    8.14422449344671
C         0.49421584323402    8.63735599251419   12.15499607649503
H         1.37216642200908    8.16179962819106   12.56805273715070
C        -0.69125923059920    8.69339460713923   12.86730042620115
H        -0.75666785545347    8.25128393161255   13.84835339778279
C        -1.77776522863461    9.33405557261416   12.29234087315130
H        -2.71851014548861    9.40849665254580   12.81769492777872
C        -1.63106604252412    9.88173838735970   11.03025370704720
H        -2.44946719188362   10.40003160332932   10.55498693030661
C        -0.40595499987027    9.77359483548173   10.38106553058698
C        -0.19498199432546   10.33529725236157    9.00458195883278
H         0.60497339255076   11.08005787883338    9.06983946122122
H        -1.10880631979914   10.79917159239700    8.64116797939889
C         0.26156421993510    9.25156330486855    8.06733194900253
C        -2.74273287802712    8.96969402644756    7.37566545691843
H        -2.73984486604705    9.92687620471826    6.86371734514278
H        -3.06456010972960    9.13645408640983    8.39813674724491
H        -3.49618219632256    8.35208195749853    6.89781993288880
C        -0.76457955210341    7.55235781512987    5.48851563371843
H        -1.64066784340307    7.01753100433376    5.13287962921568
H         0.08755030506044    6.88801275033958    5.39239907882532
H        -0.60355287850947    8.39212060036497    4.82068783541379
C        -1.04376896760848    6.56501340129289    8.42351864210429
H        -1.71097671075387    5.78994089475121    8.05878387943527
H        -1.35053088833532    6.81870806286855    9.43489253597774
H        -0.04545469978739    6.14228876537729    8.48551199666984
C         2.11244242005597    8.15497032515654    7.13286059279104
C         2.16409971468915    8.63051888774933    5.82996217092130
H         1.72479929266694    9.59285186784852    5.61787019005516
C         2.77881149172858    7.88787335666214    4.83630993676014
H         2.82130770637854    8.26968613797438    3.82841704815868
C         3.32819098315253    6.65774812435578    5.14035433092273
H         3.79849983596152    6.06630395751495    4.36982859793677
C         3.30105008721126    6.17259928788957    6.44161462770607
H         3.75255844424346    5.21644309151666    6.65237722432616
C         2.72193089829977    6.92460809642994    7.44927537790152
C         3.12146827211125    5.32796903921935    9.23503402086600
H         2.84232125513207    4.56099622241934    8.49711468466543
C         4.63342611954783    5.35351639793632    9.43992190175764
H         5.15105028843237    5.59784621930721    8.51525104147904
H         4.97684424544516    4.38416479780966    9.79037548513290
H         4.87634523536680    6.10867905631344   10.18361649836315
C         2.39338614561955    5.05842478326719   10.54687462745701
H         2.64091798451059    5.84352646567969   11.25624080045394
H         2.69879055827561    4.09753680086273   10.95023243772389
H         1.31728923260447    5.05288498271162   10.38999518477628

