97
CSD_code = OFAPIV | q = 0 | S = 0 | Stoichiometry = C38H50N4NiO2Si2 | MND = 6
Ni        3.51514244487425    5.27254594887204   13.80801145800001
Si       -0.74108637668474    3.94058988305569   13.10921737716919
Si        6.73206024066047    5.84818180939463   16.92052503298623
O         3.98175795808398    4.33697296423888   11.72618967600742
O         4.38013257676363    7.17635586262527   12.78521396916439
N         2.68155425632152    6.56273010008805   15.32588857496419
N         1.83078754205963    5.21602066647259   13.05775398344826
N         3.36248805455322    3.26388234929754   14.58257606245422
N         5.20423074383434    5.33301008515325   14.54557698523556
C         3.42210961149835    7.45503494106776   15.97337473820346
H         4.38517326398823    7.68340206954518   15.53785101291602
C         3.03458071060483    8.08329147448699   17.13871893055906
H         3.68350716146351    8.79903953602756   17.61757061273141
C         1.79304758585166    7.74950788500873   17.68161313258199
H         1.46091173384525    8.19625879761110   18.60821427736919
C         1.00378711181740    6.85451168486010   17.01022946284519
H         0.02650866132557    6.58771424928213   17.38355145455451
C         1.44836934023473    6.27460218414822   15.79780259878834
C         0.56100854326220    5.44578423324984   15.06547418387702
H        -0.35924613683576    5.19230430206799   15.56835061890885
C         0.71098461368651    5.02226088552917   13.76257898918757
C        -1.13068608983137    2.69383489231468   14.50818563185438
H        -1.71943191617072    1.86111079021443   14.13495823834085
H        -1.70202665768138    3.15934794968086   15.30463504779696
H        -0.22522319342800    2.28978515205121   14.94975160197878
C        -2.31246067389338    4.99846434841789   12.83344101873265
H        -2.31216033725172    5.49825053414859   11.87003215624735
H        -2.41612962183220    5.75964474682845   13.60089218964239
H        -3.19808429832935    4.37187235164945   12.87207668750278
C        -0.38592830801838    2.92232875713702   11.53160922264340
H        -1.03203396077553    2.04961061245826   11.49899370280007
H         0.63904931911885    2.56895478797925   11.49010576638188
H        -0.56298195005498    3.49654383834326   10.62873516429826
C         1.81661981451047    5.24752782559889   11.68698780852410
C         0.75233403879877    5.81128632467827   10.97674026605011
H        -0.05483757994232    6.26162224951887   11.53333728632337
C         0.73505325198987    5.81032636387457    9.59361667827385
H        -0.10182651056553    6.24449585521173    9.06661941371189
C         1.78995219752174    5.26102211402280    8.89238571159009
H         1.78268139201380    5.24525913084473    7.81329643714461
C         2.89145281348689    4.75143593963641    9.57332395752859
H         3.71322832334767    4.35906000214857    8.99551511187694
C         2.93016081313105    4.76272939778301   10.95468182047658
C         5.00017534307754    3.54624716375950   11.12341911612981
H         4.53679881687695    2.91728619813271   10.34786730594597
C         5.58954893590882    2.64460308815219   12.20249506810315
H         5.88626959554919    3.24987952113066   13.05457147225658
H         6.45865525121158    2.12102596826850   11.81356046721796
H         4.85559503628991    1.91620171696117   12.53730682882906
C         6.08979196773434    4.41811205068127   10.49550051278837
H         5.65660023495748    5.18560034263192    9.85886615405284
H         6.75517565237578    3.80197385040329    9.89574550851750
H         6.66882528276424    4.90615036428613   11.27377666300255
C         2.58965069321059    2.34837595192531   14.00950567576861
H         2.24061128992074    2.57469692860925   13.01139232836799
C         2.22171100290770    1.16130128781088   14.60813519242040
H         1.58917756702827    0.45872403516128   14.08950980433585
C         2.67696450309267    0.91180389884502   15.90352598315637
H         2.39148889851659    0.00673020205470   16.42101105345663
C         3.49941987527242    1.83141161577276   16.49730439508485
H         3.89297461914621    1.66523303991747   17.48881781885328
C         3.86734288775981    3.01348410856846   15.81087132614630
C         4.81359223343411    3.88737666346294   16.40385491350649
H         5.07923119018384    3.66104360320292   17.42472961646993
C         5.48879172524822    4.91654504152291   15.78415121172116
C         5.81477504895286    6.13268340350511   18.57596083957983
H         6.31739938096129    6.88677216474403   19.17440561208254
H         5.77862730510612    5.22443496861307   19.16862202010190
H         4.79201177898380    6.45994351930863   18.41807323942954
C         8.26229553874372    4.76195087415447   17.29948382409130
H         9.01462173581645    4.81812078918123   16.51919873080971
H         7.98675411412062    3.71840185278222   17.41880712988330
H         8.73103336437323    5.08439772358497   18.22402587436207
C         7.31373477366484    7.55739594257484   16.29377084947897
H         6.55842763506564    8.05939322012301   15.69851506898611
H         8.20390546274551    7.48036420933862   15.67891498278114
H         7.54891436855449    8.20413081818952   17.13420987040685
C         6.13941302047453    5.97344407052158   13.77411545989889
C         7.49212761115391    5.62229954669766   13.81823876673464
H         7.78851409920748    4.80007088917812   14.45079426115355
C         8.43128920221701    6.29663085233389   13.05910880524954
H         9.47188817498790    6.01291446877936   13.11600617566207
C         8.03452221693128    7.32403148786244   12.22650778244875
H         8.75965543392690    7.86390892207205   11.63707490246649
C         6.68653123992257    7.65107077910598   12.11427668671251
H         6.40597973784129    8.43663817360880   11.43067081567607
C         5.73548202309992    6.97390366263409   12.85364981600316
C         3.89276704436728    8.35593004028577   12.15496799776502
H         4.61081626806332    9.16948900513186   12.34017596873915
C         3.71950358908306    8.15626980755083   10.64776504066684
H         4.61808142974742    7.73504306658403   10.20374094232320
H         3.50946430640118    9.11069160639306   10.17129388512676
H         2.89314881913463    7.47840874834752   10.45611529079926
C         2.56140544941655    8.71561946146852   12.80532008036438
H         1.90644945785909    7.84896442614926   12.78731873623614
H         2.09250768351611    9.53176586129224   12.26236311333018
H         2.70772957573360    9.01429312003187   13.84008496285602

