85
CSD_code = OFAQUK | q = 0 | S = 0 | Stoichiometry = C30H48N4O2Ti | MND = 6
C         1.24715590921585    3.98153011739693   12.36669170721925
C         3.37320006582844   -0.45550870209622   11.19234551803700
C         6.63271336840271   -0.77018815005014   11.99453693437488
C         5.81852474334497   -0.29723585141263   10.95157704271487
C         1.63018160515157    5.30959486670095   12.62003789481223
C         3.06054063563902   -1.88096214669874   10.72192011142968
C         2.26044857063862   -2.55473506250725   11.84624390923212
H         1.40973064514684   -1.93470652534737   12.12036064727102
H         2.88521266449457   -2.69486111727171   12.72732155578411
H         1.89789231360892   -3.52754349300296   11.51968948284445
C         0.16593894679627    3.41923043398327   13.06233958991546
C         0.87868205527112    3.36862257741654    9.25879332955304
C        -0.15805039720173    4.34437993324850    9.80997841441397
H        -0.73995906954108    3.89961526761277   10.61150299150822
H        -0.84180075924998    4.62416167098570    9.00908225185971
H         0.30972671504660    5.24977594641889   10.18777343162341
C        -0.23912363477096    1.99344773721564   12.82328927343309
H        -1.02673134287309    1.94149240504264   12.06805475037929
H        -0.63255758210322    1.55099970450361   13.73719803227412
H         0.61130912531875    1.40700721061118   12.47326740479500
C        -0.16673203582860    5.51670437798481   14.20835846642603
H        -0.71884962453686    6.11173260477425   14.92037870015134
C         7.94904986025550   -1.10879716592410   11.72945873544478
H         8.57357042957975   -1.47769349881909   12.53084367798972
C         6.05678767963668   -0.88691353796103   13.37486651621694
H         5.44418607115281   -0.00657284287159   13.59129165409040
H         6.84776214628919   -0.97870214141345   14.11608903914278
H         5.41319166361924   -1.76550055880663   13.45211459929474
C         2.16903156907436   -1.73289388867353    9.48045616213433
H         1.30065482988160   -1.12300613749306    9.72075550095066
H         1.83307204815546   -2.70973826024058    9.13670471954393
H         2.71742271616878   -1.24696959015100    8.67553052943646
C         5.50059974027622    0.39455366046866    8.54672333177590
H         6.10654388861111    0.96889110898918    7.84765684693874
H         4.70321918046198    1.02613037086975    8.94105626339896
H         5.04447674286796   -0.42644215064421    7.98902450201200
C         6.35085563468731   -0.13850637082921    9.66307575339437
C         4.27838506604445   -2.73809843411204   10.38581141947164
H         3.94223311737115   -3.73467873373416   10.10114723491096
H         4.94321355857673   -2.83609336463255   11.24003171699597
H         4.84427326644384   -2.32260890278886    9.55755075387511
C         2.81543490236923    5.87854219268490   11.89759704273723
H         2.55226003961375    6.13996877757489   10.87079654081286
H         3.61238727285500    5.13042666188386   11.85673130582576
H         3.17548247275225    6.77638942433456   12.39513248403222
C         7.67487262517190   -0.48489608130601    9.43554453510865
H         8.08580707770981   -0.36569656333239    8.44263100207049
C         0.91262209039813    6.06204634536157   13.53473269748455
H         1.20547419111842    7.08478499494526   13.72584756055816
C         2.94142080087470    0.97863351559217   14.43060085692924
H         3.56458765543496    0.70252130499766   15.30009597070947
H         2.71228714293643    0.07114804929086   13.86903335452472
H         1.99930629086060    1.39406126153146   14.82929580418811
C         1.61915144507130    4.02530985995274    8.08444442863155
H         0.92182097830565    4.25681050770186    7.28161667638400
H         2.38454140151829    3.35229507612231    7.70427157063587
H         2.09832149803943    4.94933038370645    8.40517976759104
C         3.85381630299002    3.14360504943550   14.36777718073762
H         2.90303941948800    3.57828500410535   14.72296442506565
H         4.37327790053860    3.88798143312117   13.76384615007269
H         4.46475660518758    2.92415309559415   15.26060847924059
C         8.47176194146718   -0.97359068168032   10.45483628252164
H         9.49969924992893   -1.23982500204687   10.25915179352327
C        -0.52781956348395    4.20256823804037   13.97334406712404
H        -1.36252298130291    3.77106323542736   14.50821564251711
C         5.41535869979738    3.70596759172121   10.24312252973581
H         5.81095286882401    4.71044212777072   10.47793682312035
H         4.51485612568705    3.82329509590772    9.63773924426789
H         6.18224002415579    3.19260611669976    9.63705762461417
C         6.36328203952742    2.78285155523885   12.18602690999322
H         7.10116293612674    2.22014652382351   11.58773205206844
H         6.17553678407948    2.23666647870261   13.11093936788172
H         6.82176948398304    3.75536799373472   12.43647671719578
C         0.18273645844587    2.08972352793320    8.77150879195975
H        -0.33990978899015    1.60557868689920    9.59445734084635
H         0.92179047713525    1.39501167856741    8.37798049185433
H        -0.53636752676621    2.32467725131906    7.98862990234498
C         1.94983100812395    2.91790401470891   10.25917328132278
N         3.62334678459290    1.94194208819643   13.59606453192129
N         4.53066057345498    0.13364650046460   11.25578491356744
N         2.04035065006997    3.20901944429911   11.52334778468033
N         5.12968401045899    2.97034917447100   11.45401367146174
O         2.38594450400755    0.24833272387758   11.57297866425717
O         2.87532729317144    2.17366381296367    9.80703004506161
Ti        3.61977770730544    1.91287816291929   11.73187329577350

