104
CSD_code = OFAROC | q = 0 | S = 0 | Stoichiometry = C55H44BrNP2Pd | MND = 4
Pd        8.38252664467984    4.76584917678571    3.56765331973352
Br        7.95256068283478    7.01251960763830    2.86800313298048
P         8.85890568134691    2.70521867200126    4.34270385737149
P         6.12804021140522    4.44250166043084    4.03254812141098
N        15.47216854016820    5.63515639882252    2.13583163547513
C        10.27744705957752    5.12942877833394    3.21904829984012
C        11.17577755385479    5.42185817898643    4.23801175549265
C        12.51905017102511    5.58318476317240    3.95857775246812
C        12.97155260902272    5.45541439352747    2.64401063160913
C        12.06625835290316    5.19862413041730    1.61178938002316
C        10.72568252680023    5.03754789946379    1.90576650333486
C        14.34845772310921    5.56905648316793    2.36104155404772
C         5.84596347372005    1.88118807893574    5.11341369879552
C         5.42682036623472    0.52655246499872    5.08056125860342
C         4.53964949260204    0.09698944892602    4.06001226973199
C         4.07671235919068    1.03704246863421    3.11691561465943
C         4.50164508417884    2.33156295664554    3.15678720725601
C         5.39232926764302    2.77386888805698    4.15654290246361
C         5.90175208205831   -0.42636952292677    6.00827529274790
C         5.51716347902438   -1.73486542581381    5.92671756067938
C         4.63626583679403   -2.15664806371760    4.91928624428994
C         4.15662356443683   -1.25812795211360    4.00838178890545
C         6.73397092154853    2.35205762937323    6.19974253209455
C         6.19008562022298    2.51698847350583    7.50572255962452
C         6.99599758247052    3.06809651994869    8.53508856662880
C         8.32585533529243    3.44116141392436    8.24391742099264
C         8.83886975312486    3.24712150402733    6.99850697784026
C         8.05813786082256    2.66784502639662    5.96973957446671
C         6.44494119789140    3.25352133274387    9.81800018166102
C         5.14923993754187    2.90796375664664   10.08062833252827
C         4.34952995682025    2.36523530008646    9.06535635949384
C         4.85375172215789    2.17879769883600    7.80854696949029
C        10.48549758922033    1.93806755021717    4.61990025193495
C        11.42295940373115    2.08033909218062    3.60123924435933
C        12.67654541976335    1.51373477766516    3.71739633254702
C        13.01902054792657    0.77856097767408    4.84591117433749
C        12.06443121018732    0.60929944917408    5.84401720306382
C        10.80987224078503    1.17730288602393    5.73835734911143
C        14.37549345562962    0.16248841958130    4.98684775234484
C         8.11873346688821    1.45358115532831    3.26027203815254
C         7.65555463436004    1.87287845720068    2.01859389878715
C         7.08464716973032    0.96599172088942    1.14739901144489
C         6.97831935798883   -0.37481955321350    1.49751735087761
C         7.48801346909319   -0.79316959321064    2.72352491669752
C         8.06080969172906    0.10640453729518    3.59832215793912
C         6.34559033105901   -1.36433201367620    0.57012102950910
C         4.98308071138770    5.31910855186363    2.92548078445270
C         3.87933220718264    6.05522279909368    3.33392737195406
C         3.10688221263602    6.71121659966989    2.39364256787894
C         3.41631812786423    6.65509570694671    1.03978109466735
C         4.53182812042075    5.92783291121197    0.63939155908554
C         5.31076298382130    5.27485329224070    1.57116125674571
C         2.58791017229812    7.40121968352256    0.04121755615998
C         5.84727776463431    5.14053866398583    5.68488664778821
C         4.65777680006973    4.96957825149597    6.38737722713273
C         4.51914629387676    5.51140822830558    7.64885028870298
C         5.56015951946040    6.21758298574201    8.24278814963532
C         6.74728701904779    6.37827382845704    7.53896630591063
C         6.89348400820378    5.84701937256816    6.27229995935252
C         5.39367334073816    6.80154428795529    9.61090141948480
H        10.82502853413201    5.52770671336255    5.26396214612002
H        13.22617005861050    5.80064837719601    4.74704264078788
H        12.42379984736116    5.12217278136375    0.59427271880933
H        10.01849418494683    4.84266634767935    1.09804594360472
H         3.38822850345702    0.71022775944322    2.35077335431671
H         4.15270741710741    3.04105346458898    2.41953219130557
H         6.58097718531412   -0.10626111301323    6.78520628101451
H         5.89132090579109   -2.45542133370676    6.63919675888364
H         4.34286937848636   -3.19508046233894    4.87077688279656
H         3.47827882220312   -1.57229670844084    3.22774006120618
H         8.92450330587985    3.88966148404219    9.02349630913507
H         9.85570946274684    3.54286213517285    6.76676131989640
H         7.07049950998372    3.67624030295283   10.59096489855111
H         4.73366493682835    3.05116649791597   11.06729446502610
H         3.32577150720798    2.09706388525795    9.28161074691341
H         4.22726854974009    1.76459285025869    7.03294375063736
H        11.16221326443090    2.64716730446134    2.71669079682911
H        13.39937691241044    1.64920337979368    2.92590564446184
H        12.31182166298766    0.02585608050352    6.71987582937610
H        10.08729415065051    1.03318510598931    6.52989767141339
H        15.05515165194019    0.54075961985694    4.22808632760738
H        14.30759631424944   -0.92039949750765    4.88073112799320
H        14.79196773506205    0.37410893778676    5.96995903528524
H         7.74890538328811    2.93021698343623    1.74528043520573
H         6.71255513838755    1.29904217517320    0.18899146934119
H         7.42331889848246   -1.83674831428508    2.99643463845857
H         8.45194666770620   -0.22639381711325    4.54977116356254
H         5.72965337691903   -0.86413678023637   -0.17283352745578
H         5.73094601807838   -2.06871118027587    1.12678911504743
H         7.11558347093575   -1.93281245508284    0.04796505191182
H         3.63268258268820    6.13451090103522    4.38237435883036
H         2.25216232146054    7.28782630873954    2.71822778930000
H         4.80053893653231    5.89295192367199   -0.40653131056125
H         6.20588315526209    4.74160424996099    1.25725992149056
H         2.72120449077356    6.99577737820372   -0.95855463280998
H         2.89023187431339    8.44824920112939    0.02543382154417
H         1.53301132758374    7.36142404509900    0.30420731780052
H         3.85310346441989    4.39287437604224    5.95057616017167
H         3.59370670496890    5.37483441884478    8.19046495659809
H         7.56434303707134    6.92382807113473    7.98891153982640
H         7.83872246934653    5.98008351813708    5.73042635089373
H         4.78718722401661    6.15012605956881   10.23624447492596
H         4.89200637596118    7.76730051704270    9.54384339534011
H         6.35825336008628    6.95560334115742   10.08792945178899

