86
CSD_code = OFASEU | q = 1 | S = 0 | Stoichiometry = C47H36AuNP(1+) | MND = 2
Au       14.73288085273554    0.66347648208616   15.17428470208215
P        13.02482081517142   -0.78663143190965   14.82717100787567
C        11.50870456604537   -0.57794004753643   15.88887319905787
H        11.08257080723816   -1.59338820748448   15.93488588801867
C        10.45422321308835    0.34634584795955   15.34336073855388
C        10.69601698181553    1.70896058169854   15.14257917396154
C        11.94173665007179    2.36130155312446   15.48711983199536
H        12.16793942582421    3.24489994879090   14.90291412035829
C        12.73750599131032    2.07410392938250   16.53409724485710
H        13.52957632172456    2.77610021665582   16.76996404982173
C        12.49778564671588    1.06188298223757   17.54773794928990
C        11.84986750732262   -0.15257146924035   17.29057804961015
C         9.19335837007477   -0.16977316525590   15.06505990438156
H         9.00081991150137   -1.22060195029549   15.23335431311985
C         8.18131571265421    0.63533326832128   14.57684244133216
H         7.21094852905215    0.21325179388464   14.36579489491570
C         8.42477190207801    1.98134390274874   14.35039621843822
H         7.64289388893021    2.61617337015540   13.96343848184655
C         9.67007491876199    2.50518540350243   14.62281878322994
H         9.86156505146365    3.55500824708689   14.45836677180351
C        12.87466577961487    1.35591892044055   18.86208825425177
H        13.39981557564212    2.27991599166036   19.05769605146894
C        12.54673353507612    0.51761504897162   19.90580888399728
H        12.83473254217741    0.77094272389275   20.91455953738698
C        11.82432177410865   -0.63850371979319   19.65497204891022
H        11.53454548038809   -1.28794640620393   20.46593161020744
C        11.48927969046555   -0.96794492171672   18.35611250610051
H        10.94537426437877   -1.88110175442180   18.16476836132906
C        13.36993212822200   -2.59661283030925   15.09544310625545
H        12.61418473468267   -3.09807883266601   14.46862959321957
C        13.20368063534964   -3.08192351418669   16.51014317251473
C        14.00133677004714   -2.60402496173371   17.55500655473066
C        15.09037047706918   -1.66846833335032   17.37019698841697
H        15.32191427561165   -1.06421521218437   18.23891337358706
C        15.91767590503298   -1.59605618513030   16.31011271472186
H        16.80283915507992   -0.97686563358306   16.40445667885520
C        15.89966129426205   -2.45840420273739   15.14231563296750
C        14.73020189844011   -3.00891181438411   14.60402524639205
C        12.25159300930650   -4.06049090473414   16.77362521380300
H        11.64591632636222   -4.44365937477950   15.96366109895683
C        12.06445602307913   -4.55282735412224   18.05173470425206
H        11.31929735060763   -5.31186731322383   18.23346949239407
C        12.82934333938461   -4.05703230235966   19.09638148700982
H        12.68468875983696   -4.42902251933773   20.09875238606181
C        13.77808062771018   -3.08878375972375   18.84805457510005
H        14.38544272586876   -2.70895823385713   19.65606607924074
C        17.12930959162291   -2.81235206996975   14.57743137444953
H        18.03052109138911   -2.36459616563714   14.97122514142213
C        17.21141247208171   -3.74987779545053   13.57052569625785
H        18.17193852200296   -4.01939447839414   13.15894930384252
C        16.05657583544814   -4.36108902145286   13.10757360571089
H        16.10938229592399   -5.11916980375025   12.34212859196674
C        14.83020597957335   -3.98266303505864   13.61803931761591
H        13.93194333397432   -4.44476636516594   13.23583910139934
C        12.25447206079609   -0.83048171060382   13.13327054169421
H        11.22458180727729   -1.17289268093367   13.32596298441358
C        12.88852344087861   -1.77845192062943   12.15209308404766
C        14.21249779070516   -1.62643290246343   11.72853519489817
C        15.06466393018574   -0.53129921720929   12.14233989331391
H        16.12495234542777   -0.75244442657846   12.13311396309874
C        14.68413621992524    0.73887959527736   12.37436609771129
H        15.46284865524511    1.48499930348518   12.48606743540970
C        13.34112953527656    1.27386892661904   12.23648040302922
C        12.18300560537666    0.53396523317558   12.50441384433702
C        12.11852618859456   -2.80944693924356   11.62540880831039
H        11.08998545913280   -2.91890632629866   11.94135810077980
C        12.64402639995937   -3.69743989986183   10.70553395191864
H        12.02927069075372   -4.49146795080038   10.31055887349439
C        13.96499868757153   -3.56819504823879   10.30487447815318
H        14.38555939597923   -4.26024209543788    9.59192748016226
C        14.73842497294656   -2.54998677540011   10.81937327475458
H        15.76423189346105   -2.43782643903501   10.50130032592735
C        13.20646537530055    2.57386633711020   11.73870915342685
H        14.09846017515450    3.15666743278886   11.55881085309018
C        11.96919193031536    3.09799147041991   11.43180376522782
H        11.88870701363674    4.09825168343495   11.03467835299616
C        10.83287499874071    2.32504194333841   11.61339413058130
H         9.86142338055782    2.71211575890466   11.34907912276964
C        10.94543179379454    1.05854766833605   12.15318582642346
H        10.05455256345244    0.46939454981813   12.31375954786589
N        16.27368576972442    1.97284872620654   15.51884104221586
C        17.14976610341537    2.65479600482564   15.80310114343904
C        18.22990079698018    3.50405706622917   16.14889891724732
H        18.02077327825264    4.52073747074326   15.81444792776753
H        19.14362702522111    3.14956248102859   15.67079443262709
H        18.36605445257027    3.50217755953303   17.23094179952782

