91
CSD_code = OFASEW | q = 0 | S = 0 | Stoichiometry = C36H50AuN2PSi | MND = 2
Au        2.82228596004024    5.62711267591415   12.04174035159766
P         2.25859888970625    5.38881138830476   14.22915380576963
Si        1.92774938576206    3.19971588599321   14.47119962106286
N         2.84497780842738    6.84133213121921    9.26751328025913
C         3.32152147499502    5.88488996153579   10.07978779998645
N         4.15742780838102    5.15330041490226    9.32589171476921
C         4.24807309947389   10.67313353211728    9.60382840073277
H         3.87670942123288   10.72829804116411    8.58231853432568
H         5.32977044973561   10.78632317666226    9.58441526886683
H         3.83285301631636   11.50450994019520   10.16634785683381
C         4.31164018186857    2.74471444432503    9.55411982611956
C         4.97180946167511    1.64019774183866   10.07328686321751
H         4.57586567518152    0.65166415790209    9.90526069563466
C         3.87786824143711    9.33231523090062   10.24016522731668
H         4.42291930299351    8.55104335560955    9.69986482256034
C         0.11818162859107    9.72515469169492   10.55540749589614
H        -0.58558515753189   10.47115800592069   10.89345981170332
C         2.39562183846101    9.05478667799197   10.15271968320559
C         1.87150850408440    2.42627579876805    9.80568678515773
H         2.02160959457136    1.53167142257382   10.40562975603916
H         0.91865103402890    2.34248728416721    9.28737426678710
H         1.83155095786800    3.28353984716174   10.47744798778815
C        -0.89202545686228    6.30907270956022    8.03443001962602
H        -1.78040040639816    6.87916216445989    8.29209765191980
H        -1.20557616560735    5.32527439350652    7.69257170559956
H        -0.38600605732539    6.81482067185701    7.21398234143458
C        -1.59605696246886    6.12291196044390   15.36377778628867
H        -2.30071991007583    5.72181868658649   16.08014770485388
C         6.63679485574942    3.05075739119057   11.06360525288174
H         7.53362332010003    3.15422369566261   11.65374948448039
C         6.12665637521526    1.79170790449083   10.81725286834080
H         6.62549687127626    0.92132293864061   11.21605484305246
C         1.91335086454401    7.82704426142632    9.69434191562278
C         6.00282639040646    4.18511514331801   10.57378425815322
C         0.34635992313186    2.51178871838287   13.62646572717511
H        -0.51388686211240    3.12598329791472   13.87471209023882
H         0.13704493278218    1.49606932991041   13.94759658795405
H         0.44385380142502    2.50859237616974   12.54506661887176
C         0.04032978533930    6.17183915865837    9.24060777418733
H         0.88672354314672    5.54640523640632    8.93919689698330
C        -1.96168520079752    7.19117268752834   14.56025568822883
H        -2.95030938402322    7.62092795954320   14.63933122432337
C         0.55101667044844    7.52264851808981    9.68178392569338
C         4.84507133246365    4.00977632028158    9.81496846693166
C         4.31233907535510    9.28166984587708   11.70776298520770
H         5.38709848177314    9.42935732890813   11.78708115003269
H         4.05905118194335    8.31698645962870   12.14684679309504
H         3.81234918960205   10.05789096464865   12.28140370762841
C        -0.33578318323568    5.56972992495430   15.26284875118892
H        -0.05100001155753    4.75179232687313   15.90735526661874
C        -0.33737863304523    8.49902536902548   10.11193048755039
H        -1.39588355342473    8.29201764918052   10.11315617337204
C         1.47262873755812    9.99670806099568   10.58526693258786
H         1.81502245682506   10.94869022373156   10.95881188937367
C         3.37972620950491    6.71817196190337    8.01151570689967
H         3.12945493905908    7.38779154974309    7.21489106636007
C         3.01281373657859    2.58900738936272    8.79694956124212
H         2.82562702593987    3.49809648676549    8.21536757597329
C         4.21106707169481    5.64863222676015    8.04813244925662
H         4.82587576947908    5.20816682861210    7.29055166340366
C         3.03995542583750    1.41797623945219    7.81405481789459
H         3.92000177267766    1.47137281167050    7.17641220380735
H         2.15435306864605    1.44806103786997    7.18303631611178
H         3.04596047946940    0.46442702753052    8.33456571503902
C        -1.04117129561405    7.70825913667441   13.66357913308043
H        -1.30454819140300    8.55303400056733   13.04104591396710
C         1.89627531544417    2.68675092771745   16.31759200512279
H         2.56278741414397    3.31379011821449   16.90204089900941
H         2.21614192170869    1.65548245892464   16.43570130819779
H         0.90224889316182    2.77237710423372   16.74632601168836
C         0.58660793888401    6.05347442671791   14.33426171435573
C         3.44520467930704    2.33742686004503   13.68468770179728
H         3.50006800795200    2.50647852471764   12.61386680001122
H         3.42089704558554    1.26661628786033   13.85677393205194
H         4.35981152118510    2.72501916698406   14.12075371387232
C         0.21533337180822    7.14894215026471   13.55295731548326
H         0.92739166698821    7.55962364763286   12.84679074396437
C         6.56218314279526    5.55623083771078   10.86891961907410
H         5.91199062192266    6.31474943595520   10.42199769884209
C        -0.66459486434660    5.46976390771593   10.40368426919192
H        -1.53998304687663    6.02706452752944   10.72548749522675
H         0.00697426728626    5.37821010276070   11.25638256835300
H        -0.98133950402204    4.47363422980404   10.10278202934390
C         7.95612381049914    5.71135006840198   10.25514126811679
H         8.65505919612725    5.00464638746835   10.69452595077638
H         8.33056345954165    6.71713074481015   10.43132758584600
H         7.92382568212719    5.53786360590353    9.18099148082083
C         6.59464437372704    5.80759153510504   12.37759466373165
H         5.59928279578646    5.68209781125461   12.80255709179794
H         6.93021476385664    6.82228649793150   12.57885013377208
H         7.27093693410892    5.11746245261581   12.87453905136634

