89
CSD_code = OFATUK | q = 0 | S = 0 | Stoichiometry = C32H46N2O8Pd | MND = 4
Pd        4.36335081189730    8.74470793860032    1.57815372806751
O         2.58803273063099    5.50738622653215    2.80902634620175
O         4.69563250626465    5.93141254242959    2.19305774566480
O         5.08368730181569    7.63727807358170    6.45003072645735
O         4.11647712862758    5.95710041877072    5.33447612740008
O         3.73244131075955   10.08548301124942    6.41702889346992
O         4.65031386510411   11.70722872554523    5.17684528588540
O         4.00222385753910   11.55714586990123    2.15210553035792
O         6.19140059602806   11.97325656934288    2.40339356443150
N         3.15219437960188    7.80963263950152    0.20184562028520
N         5.58791377986596    9.60841447667967    0.14296037653727
C         3.46578754440193    7.72492944231765    3.09408509837832
C         3.95750654680110    8.18840019594992    4.47052749244357
C         4.79901916093783    9.43549874025089    4.43364187882960
C         5.27920328165983    9.82553094463097    3.03455217927246
C         3.65720093565680    6.31714122719302    2.70493208095138
C         2.82117507618163    4.14527686628412    2.48741557855972
H         3.30973722038720    4.05948623244150    1.51369375860480
H         1.84830398280103    3.65773203625863    2.48282576716506
H         3.46661793531217    3.69630083374327    3.24430555768764
C         2.46755424183359    8.25443630190911    4.06806826436349
C         1.89424074696313    9.62404569209468    3.75344764412992
H         1.78514902662722   10.22572035063433    4.65238843447063
H         0.91470487684976    9.51061465169724    3.29403670966690
H         2.53740746026837   10.15280574132106    3.04697456575781
C         1.51152078613007    7.33032785455789    4.81691821730281
H         2.00442417859531    6.36439040430847    4.93830687505932
C         0.20580332777084    7.06885573808113    4.06243093227008
H        -0.38478315140331    7.98416519090499    3.98982105744569
H         0.43329609604160    6.72352090984102    3.05329039311273
C        -0.61013585779296    6.01911226888982    4.81158623338311
H        -1.54121273193703    5.81466627454730    4.27634195047477
H        -0.03927886177637    5.08971822995791    4.86276613574359
C        -0.92276106154872    6.50114613906869    6.22554632434774
H        -1.48508021754585    5.73528012192681    6.76482339554970
H        -1.54719568136127    7.39654946265421    6.17078751052981
C         0.36337662807267    6.82972494572852    6.97883251179967
H         0.95606708528137    5.91970390208520    7.09615096745086
H         0.12221220026631    7.20450814046207    7.97672039604555
C         1.18258773594548    7.86504789561143    6.21337096956750
H         2.10825137277050    8.08634164118850    6.74769110731468
H         0.60965214581505    8.79115923780389    6.13343524839230
C         4.36740412313887    7.13784162291629    5.43131457059759
C         5.53205629740889    6.69686748028110    7.41097367985284
H         6.02412374972021    5.85473366554676    6.91866725702776
H         4.68924564079287    6.31643931951055    7.99288715390350
H         6.22915592251131    7.22639194334822    8.05591032939144
C         4.41743058966324   10.53225357300584    5.34952275967937
C         3.31925137795843   11.07571594014911    7.34292998397837
H         2.66393824443812   10.57705884941836    8.05309713527804
H         2.78980751940017   11.88152061166864    6.82887718262151
H         4.18441617794495   11.50080916562290    7.85687619055598
C         6.28253835665065    9.31091640714823    4.00744736416422
C         6.83166843433023    7.92075504595592    3.74818645377507
H         7.79202652478155    8.00439806187497    3.24422892003613
H         6.16654401064349    7.35100174865909    3.09398619340235
H         6.97836847045267    7.36866068807849    4.67327970481810
C         7.26199613559277   10.26987324913559    4.67978533585275
H         6.78665515963776   11.25207647822234    4.72807245807700
C         8.56245735766838   10.45286002599055    3.89403016482573
H         9.13035349983711    9.52080342740853    3.86807132115554
H         8.32225719382820   10.74641440558882    2.87238644759654
C         9.41296677701624   11.52929641145670    4.56213072796359
H         8.86523590842741   12.47334826593538    4.55138347742651
H        10.34168747563749   11.67182521982578    4.00355985119817
C         9.73127710364526   11.13944740187602    6.00267022780099
H        10.33101716734025   10.22546771944771    6.00507819859147
H        10.31994764393721   11.92578314112821    6.48116683768022
C         8.44594851600571   10.89981378533827    6.78956692091330
H         7.87719180243393   11.83080599916328    6.84353502379977
H         8.68725422762124   10.59297989418110    7.81071026933011
C         7.59383022038403    9.83277636764705    6.10858726734690
H         6.66973004658363    9.67310916568841    6.66737720810097
H         8.14315971379543    8.88913114593293    6.08949447346324
C         5.25487954708696   11.22229396534328    2.57103474876951
C         3.84218477294518   12.88961224816796    1.69791131397184
H         4.40376005406859   13.04989525621229    0.77350821752514
H         4.20194040747919   13.58605186153515    2.45823519547784
H         2.77822365713274   13.02927437021343    1.52224759277650
C         2.33649493993116    7.03980409635040   -0.04424942279428
C         1.31912705138957    6.08943415957248   -0.37612423002507
H         1.74469911029411    5.29144355195999   -0.98418126312516
H         0.51999597997785    6.58120696807811   -0.93014646335620
H         0.91616765578034    5.66752325754266    0.54471597429307
C         6.47921304833921   10.31085578238651   -0.03701465849619
C         7.56746056863624   11.20720970917844   -0.26274264310535
H         7.57639068326432   11.91976357384197    0.56564617421309
H         7.43625619466935   11.73641978341256   -1.20596495996277
H         8.50614464152084   10.65515108272048   -0.27760584709977

