84
CSD_code = OFAVIA | q = 0 | S = 0 | Stoichiometry = C41H38Cl2P2Ru | MND = 5
Ru        1.63693134274251   -6.03167447803938    8.94437223175247
Cl        2.14266689834732   -7.96782290725566   10.11580472556643
Cl        1.52674191299973   -4.91136228985326    6.91461559525686
P        -0.43805920627988   -6.95981486133735    8.54854794078531
P         3.86057905233501   -5.44628348244730    8.99282037653722
C         1.15372402963441   -4.71817462844034   10.24978083209437
H         1.95477898793410   -4.11270587200149   10.69882760751406
C        -0.13881738031534   -4.40165273774511   10.69569819834974
H        -0.95920365270989   -4.99474591182663   10.29419337754199
C        -0.46388645808212   -3.41993046813822   11.57663342329958
C        -1.88332879889105   -3.18415538975034   11.97168429385915
H        -2.55425172047625   -3.88996626665228   11.48855980976556
H        -2.18459654865180   -2.17045613785386   11.70422340726840
H        -1.99174707199015   -3.28030371329953   13.05267955797728
C         0.55326606937951   -2.51232985989452   12.19734772158635
H         1.28815570020089   -3.08262657130793   12.76460432393575
H         0.07556901579724   -1.80355770087576   12.86856659464652
H         1.09168919017646   -1.95519319824423   11.43092155899374
C        -1.60666206422415   -7.48003666154099    9.84741390102779
C        -2.93534362152280   -7.78158473468065    9.56731815675796
H        -3.31034403982585   -7.69121571704636    8.55752589255877
C        -3.77719679001923   -8.19499785359118   10.58426762720861
H        -4.80821781800573   -8.43089736479826   10.36318113864581
C        -3.30224198507049   -8.30762203082559   11.88096319436601
H        -3.96398992291801   -8.63192160144733   12.67083163158629
C        -1.98078378200695   -8.00134868989598   12.16358955966773
H        -1.60971286306997   -8.08619642443742   13.17424457976316
C        -1.13457064971003   -7.58509169426370   11.15249947090136
H        -0.10103289885572   -7.33796128667554   11.36121145428621
C        -1.53233776490415   -6.20470885695081    7.30467320245709
C        -2.20265897997185   -6.96163964186638    6.34891328114416
H        -2.06327692713111   -8.03441058482521    6.31268700967021
C        -3.03636096785008   -6.33979156510765    5.43681277552168
H        -3.55418638408977   -6.93012492805142    4.69427948294564
C        -3.20287623047050   -4.96521397247945    5.47022517914410
H        -3.85142035931419   -4.48401707698101    4.75259427693827
C        -2.52838066116226   -4.20775358168754    6.41396547592957
H        -2.64643911697623   -3.13423236479058    6.42976212816645
C        -1.69423349321612   -4.82329562937741    7.32861887403164
H        -1.13925340351182   -4.23739829847150    8.04999918684461
C         0.00652978905088   -8.53715794682088    7.75332569231455
C         0.83244381770989   -8.45097372400083    6.63221342567438
H         1.10913426938841   -7.47652826820441    6.23960210973233
C         1.28248276123051   -9.60090961985892    6.01234636073470
H         1.91545597648050   -9.52828821275091    5.13942272993804
C         0.92487442360511  -10.84266703878262    6.51401083377052
H         1.28291525696303  -11.74225037336964    6.03446891828401
C         0.11492487315699  -10.93080167259518    7.63380471984818
H        -0.15653727869176  -11.89904315710854    8.02901916542489
C        -0.34485688428767   -9.78380795800456    8.25706981888366
H        -0.96630424746672   -9.85475140839432    9.13866428884709
C         4.40818924493416   -3.71222590042099    9.07464723246684
C         3.50799915762331   -2.70933117504615    8.72753057902449
H         2.50401150842598   -2.97973376497636    8.42407359168482
C         3.90217911978032   -1.38370773833923    8.76239055876376
H         3.20254008586223   -0.60736230077137    8.48906952945467
C         5.19126710650359   -1.05176974653675    9.14612652614929
H         5.49819320834781   -0.01638892955242    9.17401808427966
C         6.08869202816747   -2.04823064957556    9.49563251014357
H         7.09433771089712   -1.79017740713101    9.79485555851065
C         5.70173679608157   -3.37553227299588    9.46278581195830
H         6.40186264558837   -4.15199952822216    9.73858292688633
C         4.93226887564846   -6.23569604370566   10.23149730439419
C         6.15282344348901   -6.82265905907006    9.92005074302699
H         6.49999837102652   -6.84121066084275    8.89526667327778
C         6.91771666958504   -7.39037140481821   10.92415907065899
H         7.86527046202612   -7.84954536735858   10.68093192763901
C         6.47020428929003   -7.37539747200254   12.23444840317562
H         7.06926629164348   -7.82486980430206   13.01297645282778
C         5.25063981749959   -6.79504296841524   12.54623140241321
H         4.89703508999512   -6.79509746703139   13.56687770394561
C         4.48223581925642   -6.22764940223513   11.54823202208218
H         3.51326006769248   -5.79633110106794   11.77003594152801
C         4.53584307155619   -6.05439149569069    7.42107637416374
C         4.24636353313714   -7.38366247325927    7.11346545919106
H         3.69421461511615   -7.99335064587727    7.82445730142453
C         4.67186656619485   -7.92518308072311    5.91616717731797
H         4.45398446814846   -8.95788208581030    5.68450691519032
C         5.37345945309601   -7.14019009569381    5.01409527790269
H         5.70072686483950   -7.56060641596488    4.07419568251123
C         5.64828566029355   -5.81578305385936    5.31159213108949
H         6.18640485539727   -5.20371007750333    4.60225039802302
C         5.23171746791815   -5.26742231924201    6.51235216126703
H         5.43605223957112   -4.23079167723511    6.74101344790562

