60
CSD_code = OFEGAJ | q = 0 | S = 0 | Stoichiometry = C29H21ClF6N2Pd | MND = 4
Pd       10.67309103943197    5.89995787651695    5.79261533211330
Cl       11.30706024925913    7.91882670348144    5.27484674358462
N        12.54012435935584    5.37799176115758    6.92614082448244
N        10.33881822126150    4.00096699097149    6.14614388050543
C         8.82071409183811    6.33364314090283    5.00120659600471
H         8.57855564970409    7.38211839970354    5.19566111203692
H         8.04967298225268    5.69335715116337    5.44498020753047
H         8.84760425447137    6.17905262656329    3.91508417806840
C        12.48048665904707    4.11223961884518    7.20615415134756
C        11.30847059972712    3.36740283955288    6.75012343404101
C        11.51112104891579    1.96489342660702    7.09776867665092
C        10.83587014592940    0.78594388911951    6.88459064960557
H         9.91145467095800    0.75011761683256    6.32974162641480
C        11.37526978099179   -0.40429849721753    7.40703970278223
H        10.83480074798855   -1.32314735814866    7.23271027825020
C        12.54378649614631   -0.44140343294392    8.12682715910353
H        12.91579386141844   -1.37670060620927    8.51779486741416
C        13.27290526924755    0.74762984830654    8.35644782689897
C        14.48564867634320    0.88931065629963    9.06714501195483
H        14.94866844472309    0.01736089165783    9.50497954070826
C        15.06956120394867    2.12546678950134    9.20461462299766
H        15.99240656736053    2.21577067425666    9.75792057318142
C        14.52075232236032    3.29160017930481    8.64256325634331
H        15.02560432236146    4.23495171767161    8.78486946633247
C        13.34879139817432    3.18891522359886    7.92992701624981
C        12.73282440091965    1.91785444473170    7.81714308094636
C        13.59652422125371    6.22676617869608    7.15827911682909
C        14.90189325424164    5.91486580272494    6.77207330215867
H        15.11721599556059    4.96024095886740    6.31419389906174
C        15.90903306285756    6.85273258410577    6.93490726962498
C        15.65131654879656    8.10100777009971    7.48075388550917
H        16.44108211878074    8.82457422119367    7.60682226245026
C        14.34544813414725    8.40512786341262    7.85255589455394
C        13.32038035001020    7.49339831231714    7.69358292930674
H        12.30237396201795    7.73940368429248    7.96957327850485
C         9.20632523068916    3.30071135664354    5.70192459169697
C         8.98369416504292    3.18615211156585    4.33369383700035
H         9.70217061557762    3.62100788763780    3.64792431170150
C         7.85812924973708    2.52624514096669    3.86214421958461
C         6.95900461544275    1.99538067061814    4.77717219185510
H         6.07560462821279    1.48701759726620    4.41873769987393
C         7.16282448128110    2.10991477387510    6.14749486270809
C         8.29794537510735    2.75965819706110    6.60730225283182
H         8.47775767014880    2.86930434920617    7.66729195754740
C        17.30528979726091    6.45699106861828    6.54278511810728
C        14.08145072685911    9.76636009593564    8.43867950686876
C         7.61586889384408    2.41987990844071    2.38830199053808
H         6.86791442286717    1.66262611697106    2.16869203506491
H         8.53573202986196    2.17257128887155    1.86283793816236
H         7.25916140019949    3.37493063467848    2.00325402325763
C         6.16110832377485    1.55077662183653    7.11064939088067
H         6.58824046869561    1.45171605095652    8.10527212845584
H         5.80754540915104    0.57717237184127    6.77785087900209
H         5.29888994855589    2.21446296306915    7.17444327103974
F        14.86493262221590    9.99865375394462    9.51195301717835
F        14.34331178024818   10.75418798046901    7.57067022540087
F        12.82216961816200    9.93191985616405    8.85230266578439
F        17.80584073441639    5.53199110467800    7.39081920774335
F        18.17058823624533    7.47345379668269    6.54060266756473
F        17.35687444465171    5.89787435397992    5.32331835652659

