51
CSD_code = OFEHEM | q = 1 | S = 0 | Stoichiometry = C18H31PTa(1+) | MND = 13
Ta       -0.11227373920505    2.74057319994498   17.30655828302482
P        -2.29130375465656    2.01235937914844   15.52945023265783
C         0.94131574631429    4.54463774475331   16.07250950948083
C         1.27011011243851    4.86220905225253   17.43489817682882
H         2.26527050505250    4.85557309720647   17.85555871093788
C         0.15594804329110    5.47002211043292   18.05061611481973
C        -0.89241566435207    5.52065037227711   17.09920647562177
C        -0.41489228732975    4.96028329779864   15.89734008294337
H        -0.95321036219846    4.97917875198353   14.96108034973453
C         0.80849120812732   -0.00255741575566   19.23086088771838
H         0.50831004679330   -1.03469640168211   19.25928069432668
C         0.07632006401285    1.07155396638249   19.67553741048939
H        -0.87024853661670    1.03993340188315   20.19098406638863
C         0.83959956029666    2.28134952226460   19.43118714326815
H         0.78729215210515    3.11766495714228   20.11832589691613
C         2.10599874352011    1.83092802271788   18.88621141075421
H         2.96742733418921    2.45826588169593   18.72491637070082
C         2.06066158673100    0.46387862328024   18.75112419898486
H         2.84506835390936   -0.16389094459849   18.36750984803091
C         0.11197434543605    6.04708527883064   19.42407100417047
H         1.01865829463027    5.81344487897714   19.97742499895582
H        -0.75086859948182    5.68171735540562   19.98053058441887
H         0.02186274171675    7.13248914882655   19.36265608972815
C        -2.22456690934096    6.15304140502822   17.30505670192274
H        -2.67733075882210    5.82399210243900   18.23891548307033
H        -2.89700920147262    5.92032221627122   16.48308182887131
H        -2.11245643323783    7.23700491483656   17.36067953417848
C         1.93243906624649    4.28245896625077   14.95916979761171
C         3.12265314361673    3.45512761787357   15.46005350571114
H         3.67486669714430    3.98404245579241   16.23291852761214
H         3.80982399708798    3.27190953908508   14.63752117427380
H         2.79913053000868    2.48793606723206   15.85086324069277
C         1.26127345224371    3.53613468768035   13.79881914719736
H         1.99377149594483    3.33959675280384   13.01984441578110
H         0.46407952243096    4.12938418523830   13.35799262068239
H         0.85289820766094    2.57976301914676   14.13200645859688
C         2.43794855393494    5.64678390405509   14.46019109520918
H         2.92819024523325    6.19219340608567   15.26296297641417
H         1.61264475388209    6.25083550407020   14.09107691533583
H         3.15198951017887    5.50720917190831   13.65293645144389
C        -2.06361264633290    1.35757780056012   13.82785413212922
H        -1.27208523678834    0.60897281798117   13.83760095178905
H        -1.78008082194928    2.15931044068396   13.14915615099694
H        -2.98735169674576    0.89895989994350   13.47833511840770
C        -3.04573996040992    0.57817316178020   16.38455906863400
H        -3.88356215537822    0.18775233263643   15.80800259525603
H        -3.38995036753089    0.88608615295322   17.37050327326057
H        -2.29109662719681   -0.19926496714103   16.50633625484573
H         0.34846365641129    1.32014482835010   16.53813227089365
H        -1.57498956079688    2.98743039976710   18.09670045723521
H        -3.44563635069491    2.77266793549914   15.32369131105984

