61
CSD_code = OFEJOB | q = 1 | S = 0 | Stoichiometry = C24H29ClN3O2RuS(1+) | MND = 9
C        11.67838542604872    5.87968593257266    9.16453433772639
C        10.43299410703674    5.45658333002444    8.64769490456016
H         9.52514743999082    5.93667520441441    8.99888230079515
C        10.35404561314069    4.54006756242847    7.57247673811140
H         9.39438067988205    4.32494213583218    7.11337176807471
C        11.52032444611288    3.98051392541541    7.01914738164853
C        12.77365669147031    4.35505220936668    7.57283801629782
H        13.68296839561934    3.98082776838923    7.11563619687687
C        12.84530395552277    5.29695422701155    8.61242515719316
H        13.81578583021591    5.65060865177271    8.94678662383503
C        11.76534100738441    6.93966550903298   10.23645016080307
H        12.82409710419534    7.12246232029574   10.44994970802913
C        11.14069808110609    8.25241576462327    9.75534267783590
H        10.06991806762645    8.14800860397987    9.60114249655384
H        11.59617827309859    8.57398963497856    8.82175600656694
H        11.30099833344266    9.02761044206379   10.49911421291100
C        11.09731368950082    6.44879836265319   11.52489261117400
H        11.23331450801597    7.18198554192453   12.31507260572441
H        11.54282941985093    5.50563468931097   11.84832966642804
H        10.02926474810959    6.29973748476852   11.38176388653325
C        11.45825759385562    3.02923165451309    5.87205262457085
H        12.22897472631071    3.26070428936331    5.13974394858871
H        10.48249345462736    3.04895474660834    5.39393658335695
H        11.63799906997174    2.01618170422982    6.23976744550671
C        13.91649498250812    2.94281502582738   10.92606525666968
H        14.41753677954206    3.28971040168372   10.03072783732760
C        14.63623021785600    2.42762995726871   11.98568936073055
H        15.71163802651643    2.38523505179887   11.93465598380908
C        13.95122287204721    1.95664447448394   13.10278488924575
H        14.48890444566556    1.54134438168334   13.93989567679906
C        12.57276469160995    2.01086574730686   13.10937789468263
H        12.00314109853067    1.62558889642366   13.93836119899164
C        11.90439425891186    2.54696238354173   12.00507408712816
C        10.47001194317327    2.60420452443061   11.84910786311518
C         9.52180584889051    2.22697241808712   12.93145289460754
H         8.51224770881565    2.53140997071622   12.66604674693049
H         9.82136505115973    2.69923355198469   13.86595454772915
H         9.51685593927832    1.14689696664209   13.06881704084517
C         8.16490728372713    1.25236678453902    8.32985436296563
C         7.43377933466634    2.14866356155121    7.57226888446692
H         6.81765871968014    2.88666287057354    8.06381155231873
C         7.48125249317851    2.05232544276802    6.19294043635144
H         6.91041927731672    2.74077002424954    5.58729589724354
C         8.24840315692835    1.06536795335035    5.57548053252584
C         8.95682518751938    0.16595274533563    6.36841408797552
H         9.54108946330008   -0.61109223853150    5.90026509652148
C         8.91737798796311    0.25213407186179    7.74912877100945
H         9.45731376516251   -0.43601256975988    8.37774498507393
C         8.28192668229054    0.95097961752429    4.08622038365695
H         8.06827353483527    1.90425526129794    3.60978401048038
H         7.52338096495027    0.23951804419043    3.76062228803679
H         9.24618642943107    0.58462497697340    3.74372073198791
N        12.58711331009432    3.02295498676965   10.93310544177957
N        10.11711850483957    3.06622054111494   10.67775706243899
Cl       11.60616923267561    1.32480543593740    8.83165310238386
Ru       11.49928635241239    3.57879593238309    9.37528812949604
S         8.12138256240557    1.40042723847311   10.10240854617064
O         9.02652124868847    0.50962479313116   10.74633269505861
O         6.78497828818191    1.53211002645001   10.57401775212687
N         8.80863468098410    3.01767373404776   10.34189440744656
H         8.57981701219593    3.61766531832427    9.55797150416257

