59
CSD_code = OFEKAL | q = 0 | S = 0 | Stoichiometry = C28H26NiP2S2 | MND = 4
Ni        3.11042739284289    0.76281883342395    6.78462497061384
P         1.85126704715866    1.67926299817094    5.28543134154372
C         1.83753669622088    3.47540450760953    5.60042043467178
C         2.56413828550290    3.92476469325242    6.62002222081390
P         3.47757991265455    2.70964314286964    7.62724444294123
C         0.17489426309854    1.32885322277708    4.70877205711391
C        -0.91237079142612    2.04992416721590    5.19135220383288
C        -2.19263725762870    1.72036246873984    4.78563598732978
C        -2.39378351518896    0.66202377847477    3.91446765979886
C        -1.31400034469516   -0.07612500811528    3.45498582297939
C        -0.03180733713280    0.24934964150104    3.85398685868663
C         2.85115665806790    1.65438971004837    3.76392761682506
C         4.14827071902432    1.16768565164459    3.88536662725182
C         4.98706392195721    1.14460749072069    2.78764553338419
C         4.52737372353869    1.60908183681143    1.56522489880768
C         3.23476496453352    2.09504022771378    1.44211329798556
C         2.39238717743184    2.12331453352291    2.53892785179751
C         5.07547175138111    3.55740518953368    7.81598724132817
C         6.20102116449100    3.01150443891436    7.21278476760239
C         7.42195814332683    3.65310369455904    7.32261408312275
C         7.51808535832445    4.84056319113018    8.02862955644294
C         6.39461085276439    5.38695157220002    8.63037917201620
C         5.17297812439771    4.74920848919411    8.52702578966981
C         2.75369487130930    2.92836754205190    9.27835145812197
C         3.48377923226297    2.44764139924695   10.36277768610437
C         2.95926769464239    2.53279918167970   11.63768809503278
C         1.70259161560710    3.08524534519227   11.83519386767929
C         1.48509143819254    3.46003149279232    9.47466302357158
C         0.96638238339982    3.54269975620203   10.75506030368627
S         2.32063131434837   -1.18374501141200    6.20957628024967
S         4.79052784822966   -0.17026097640044    7.82372798343900
C         3.68753843305186   -2.33659099003770    6.60886334084999
C         4.30003112942811   -1.92745165321103    7.92301457872404
H         1.27825592871844    4.12261153922580    4.93381273531133
H         2.66774796743129    4.97713316442914    6.86177254393224
H        -0.75195208844821    2.86426365142915    5.88569929720821
H        -3.03665349357934    2.28556302355846    5.15406822739233
H        -3.39533341921287    0.40570776791870    3.60173980649925
H        -1.47493606543058   -0.91088763693200    2.78889326278226
H         0.81788808819469   -0.32867209882359    3.51848462050498
H         4.47639435402965    0.78879925847137    4.86191585368562
H         5.99286961180854    0.76229517881190    2.87958035794255
H         5.17699560078210    1.58876257852347    0.70251559141988
H         2.88223131416774    2.45190153695194    0.48519745190431
H         1.38081686319898    2.49384875553738    2.44523467969599
H         6.10883424660450    2.07328734272720    6.68214897432975
H         8.29960296607036    3.22505965754383    6.86151688893418
H         8.47110092035425    5.34130186560237    8.11704963581236
H         6.47404781115675    6.31075128761613    9.18516659822296
H         4.29719344445574    5.16513111967371    9.00716791905876
H         4.45415733796636    2.00154510063681   10.18629287070493
H         3.52569943406716    2.16298686163967   12.47971214163545
H         1.29232115163113    3.15020031144015   12.83225385626306
H         0.90706637854926    3.80392485194065    8.62723843911329
H        -0.01784296966045    3.96101808447411   10.90965384008568
H         3.25158030741773   -3.33758680364830    6.64592759511250
H         4.42019594421236   -2.28497960267564    5.80111141044582
H         5.20543929501202   -2.49307125004923    8.15601611600049
H         3.58215619938318   -2.03127010404650    8.73894223198081

