69
CSD_code = OFEPOH | q = 0 | S = 0 | Stoichiometry = C26H35Cl2N3O2Pt | MND = 4
C         0.03680491833342    2.69727812746378    9.70921579024931
C        -1.10559290159714    3.39056642718387   10.09313445071114
H        -1.72937681212710    3.19166181547319   10.93825403540085
C        -1.27787886071382    4.40676567043065    9.14043802922903
C        -2.22422245758537    5.47645446114046    8.91031959677826
C        -3.32008887166185    5.74959415473053    9.72296679425170
H        -3.50171692906326    5.13670383984946   10.59104377691844
C        -4.15395871568933    6.80404888121372    9.39895309291291
H        -5.00942119846170    7.03420129790803   10.01498391789769
C        -3.87019264971458    7.55977902986198    8.26807715818601
H        -4.49579236227795    8.38938730823679    7.98237098726356
C        -2.76487564096186    7.23524687249609    7.50235286073207
H        -2.50005243422916    7.79171925300654    6.61204879669224
C         0.69518942936262    1.55388263182302   10.31469221279947
C         0.20504007744331    1.02131048776963   11.49786263897658
H        -0.65894183563303    1.43714017007947   11.98626377940105
C         0.82830565496035   -0.07853365311848   12.09124477180250
C         1.94751318400171   -0.63411869498245   11.49275036556282
H         2.46610667024586   -1.48046121632731   11.91025346898514
C         2.44702325776727   -0.10034060684562   10.30074835973948
C         1.82268097435219    0.98783440076174    9.70962605157426
H         2.20093483560371    1.39206969561716    8.78644789442909
C         0.82956205596022   -1.63921500232875   13.89735282754221
H         1.86800348732259   -1.42120868262115   14.17528380108027
H         0.81586547478673   -2.51309440063418   13.23168491918199
C        -0.01671525008195   -1.91387806103907   15.13671327105766
H         0.08071832580480   -1.07152347984163   15.82339158564421
H        -1.06023083027629   -1.96522474535658   14.82046444922491
C         0.36420709465574   -3.21248317966042   15.84499123212242
H        -0.36578265336426   -3.39758447229552   16.63607040469154
H         0.30041524211977   -4.04309981868373   15.13819431874889
C         1.75987970072996   -3.18076491090374   16.46511328562407
H         1.84769110277251   -2.30421726662513   17.11104291020608
H         2.51295502075798   -3.09332136004127   15.67990331869402
C         2.04437534928463   -4.43815790938341   17.28423599702304
H         1.30284867619306   -4.52467023422596   18.08158382419321
H         1.94320997144751   -5.31639390173736   16.64256735755082
C         3.44101824149962   -4.41368284529216   17.89289308404451
H         4.19672019103932   -4.35214752076873   17.11277749848580
H         3.62119125790121   -5.31462375864625   18.47434880446922
H         3.55619244355004   -3.55339501418194   18.54868732521603
C         4.13221158520633   -0.24953076598300    8.61175000199840
H         4.41700822757249    0.80542710256677    8.72167404624336
H         3.41734521700030   -0.34024982353892    7.78252187525849
C         5.37013889489979   -1.09469099397011    8.33075819786525
H         5.08003952679240   -2.14652223906160    8.33468971494139
H         5.74029680969702   -0.84419545744575    7.33526596806296
C         6.46560566950787   -0.86165349055496    9.36854259796807
H         6.06489719305052   -1.08168902592566   10.35953345905398
H         6.75865785046104    0.19095619602385    9.35242774882115
C         7.69257731003845   -1.73072918335997    9.10770222990020
H         7.40250258925399   -2.78366062694572    9.13291892300031
H         8.07934783425832   -1.51867064916261    8.10803252159975
C         8.79557765434750   -1.48773076289189   10.13520398931314
H         8.40981303443351   -1.69991557307542   11.13497341152074
H         9.08588794947967   -0.43494400385478   10.10975591985895
C        10.01915325103571   -2.35587806730237    9.86933924422473
H        10.43033197363905   -2.14378143736384    8.88480561965245
H         9.75473264872629   -3.41043223268757    9.90877502528722
H        10.79157899112429   -2.16776655115387   10.61137565843999
Cl        1.55729790851805    4.70269165553959    5.93037820399493
Cl       -0.44390322645368    7.17069339407863    5.19743523983776
N        -0.28883622853958    4.31803377608943    8.24146800772469
N         0.48579269785972    3.30556457667221    8.58184333012897
H         1.28917124485796    3.11140592085416    7.99396393552946
N        -1.96008875432069    6.22313538677496    7.80940221331169
O         0.26344807644473   -0.51996039785037   13.23943505314367
O         3.54298551820789   -0.72295538543471    9.81000465902012
Pt       -0.30518368154750    5.62314486944467    6.79577415900317

