86
CSD_code = OFEQAU | q = 0 | S = 0 | Stoichiometry = C41H37ClN2O3RuS | MND = 9
Ru        8.05549651903109    5.97340981375208   13.04350656736481
Cl        6.15182523530600    4.76340831298310   13.62880229190556
S         6.13135136362616    7.85255352418880   14.31375385963174
O         6.66713814936996    6.71650193102021    9.72116366110244
O         6.00461050505563    7.87076749644599   12.86863291517795
N         7.59317576049819    7.21265245741622   14.60363472476805
O         5.05820311481870    7.30561315312505   15.09566613374210
N         8.88163389603863    4.88462282598542   14.63728973954343
H         8.10746991839451    4.21607834455224   14.78606191980390
C         5.80557766061085    7.86078213707462    9.76803683367733
H         6.10436827853273    8.56083262611657    8.97720064374164
H         5.87750498671217    8.33736329449622   10.74955170915613
C         8.32178778545999    3.16665845910520   18.56714389590443
H         7.60651770052163    2.38763736132476   18.78423538983518
C         7.15907289603626    8.70827807075514   19.01399359722441
H         6.52931594061635    8.70077053657491   19.89141487437943
C         7.06054156564390    7.68407416126484   18.08796341191985
H         6.35114359324283    6.88358349589331   18.23474922744006
C         9.34704397256063    3.43513162636513   19.45897782151235
H         9.43416059133313    2.86468701382679   20.37152951794910
C        10.11195874028804    4.12598718695829   14.38409999095944
H         9.90173113641931    3.40717227638456   13.58507068800927
H        10.37603914763474    3.55446815342784   15.28449680235204
C         9.44289575391745    7.42772720750751   12.06252791461185
H         9.95216054482533    8.26451336065872   12.52757439346070
C         9.39344674107857    5.06496036474574   11.45527256629157
H         9.86510398536373    4.08879271788714   11.41152513745525
C         7.31863134596013   10.31870769604408   14.22620922286216
H         7.84539090567993    9.90304340653262   13.38150788683477
C         9.12252070204518    4.90298590506152   17.10726636601137
C         8.37203195281112    7.68848367667746   11.16299910188009
H         8.07054171277155    8.70846308100271   10.97005860990113
C         7.58103487137707   11.59375776451667   14.69261550259006
H         8.32793006237348   12.20451708074937   14.20501904335759
C         5.66457505352003   10.03191297269719   15.93961615757064
H         4.92609950498939    9.39785787368942   16.40344758661432
C         6.36218326113896    9.54503207227863   14.85264717749881
C        13.57584907592754    5.65128754182675   14.46115846265758
H        14.47483332961253    5.54011212797506   15.04794068989279
C         7.72816925349832    6.61176301476143   15.90707940980964
H         6.84475075116173    5.98913436559086   16.13149354918926
C        12.46101084794648    4.88587970158600   14.75374261436107
H        12.49792142934018    4.18589950165900   15.57638004575380
C         8.20652412450273    3.89717676151647   17.39809238778707
H         7.39343145044815    3.68960047132633   16.71648811201243
C        11.24416755264477    5.92217770652871   12.96035347694561
C         2.48191893793984    6.95101896210628    8.18265817437384
H         1.98950364345528    7.02366886793027    7.22345626716481
C         8.98669129195386    5.71887872808375   15.84880520379030
H         9.85979450093335    6.37118860636309   15.72218856455221
C         5.93130456831707   11.30640374668791   16.40602729938239
H         5.39097727895385   11.69010497175167   17.25915093654822
C         8.17865268121983    5.28838313378338   10.80870665609708
H         7.67213448569371    4.48719490984956   10.28266312227717
C         7.20467866991879   13.46572481474862   16.32269865244239
H         7.96203043212749   13.39456213913846   17.10415431357407
H         6.31857309485931   13.92323762761924   16.75618135901957
H         7.58899950443517   14.11205179729725   15.53713452341538
C         6.89408496953028   12.09932651086485   15.79153984492942
C         7.69628085069222    6.62446478425394   10.57659186261260
C         8.05488025580097    9.74390032667850   18.81416330869950
H         8.12517959479422   10.54614388036596   19.53405435941821
C         8.76262440701567    8.72635183312418   16.76362411013621
H         9.36978046837617    8.73440050547881   15.87047270276947
C         3.74595957490751    6.76893929301065   10.64143621317294
H         4.24513129202662    6.71325206956149   11.59780452078752
C         4.39947840216562    7.36410520770113    9.56859651564972
C        10.01760629370481    6.13673200233576   12.16331848345441
C        10.14551241350716    5.16918779651620   18.00765683727406
H        10.85377839162014    5.95570674343265   17.78955120869425
C        10.25679276660462    4.43999569030184   19.17877290305409
H        11.05526571393293    4.65694357958026   19.87269572869010
C        12.36764709824559    6.69727496000962   12.68341194058585
H        12.32338912346734    7.40500929820856   11.86828150061181
C         8.85824056021948    9.75055136971895   17.68623721811813
H         9.55741755006952   10.55787348989216   17.52337892878352
C         7.86004198323897    7.68760658885340   16.95520039895238
C        11.29041857449329    4.99733693862159   14.01348727854516
C         1.83372336168755    6.35855993562925    9.25278279424164
H         0.83325495985055    5.96964393989019    9.12873672687070
C        13.52927971323426    6.56104338935203   13.41947203234869
H        14.39237253418928    7.16473387576020   13.18315549866887
C         3.76482412138674    7.44789422002446    8.33815071231195
H         4.27346452066815    7.90515864259670    7.50079721484901
C         2.46757742457393    6.26663801332402   10.48143320992288
H         1.96516131948174    5.80468617772182   11.31807924076058

