47
CSD_code = OFEROI | q = 0 | S = 0 | Stoichiometry = C14H24Br2N6Pd | MND = 4
Pd        4.92820620807316    0.00146541925103    1.98019463483966
Br        6.01358485582305   -2.16424391667493    1.96817247840455
Br        4.29223659634105   -0.17222345174143    4.29786920420076
N         4.92069276162631    3.04522040235825    1.63771691440974
N         2.83038671419008    3.61719411013622    1.93739192083441
N         2.98181742670650    2.28891386599657    2.08310179472843
N         6.67076585790084    1.21313901581439    0.05196348020904
N         6.45968552832627    0.29306423985317   -1.91403160946901
N         5.60554938095236   -0.27471022706767   -1.03603079763214
C         4.24270343410546    1.89191067778691    1.91220279914099
C         5.70045483326478    0.26685440448485    0.17310900323192
C         7.15067795061570    1.99873730991378    1.16203013459450
H         8.18966956676916    2.28303640799449    0.97733042756540
H         7.10999604014595    1.36707963338591    2.07348046414350
C         6.32713646521182    3.27299957417161    1.37230631653688
H         6.75934331069256    3.82298445621203    2.21680098125408
H         6.39701011280760    3.90480093395295    0.47775176586565
C         4.00890024118856    4.06392183616791    1.67267929802590
H         4.25017585135343    5.09191579067647    1.49898715387870
C         7.10071390180616    1.18906628550601   -1.24173808879127
H         7.86925082453687    1.81813607814893   -1.64071629267882
C         4.80233295862462   -1.40189069770484   -1.43488564160216
H         4.77029132019111   -2.10379960204989   -0.59691869364549
H         5.32343698132539   -1.86690588106608   -2.27368411014252
C         3.38761877546934   -1.00826673854437   -1.86399014180186
H         2.92250931278600   -1.89456181864032   -2.29829620357703
H         3.45268348419890   -0.24760751135726   -2.64605937805944
C         2.50484435590166   -0.49376389543867   -0.72535474012658
H         1.53314241901439   -0.23553825464507   -1.15269361384935
H         2.93598225318885    0.42615634873158   -0.31172501737448
C         2.30721976024328   -1.51788687563284    0.39499498209266
H         2.19945416883062   -2.51866195618850   -0.01645409935883
H         1.40629215060130   -1.29044305263027    0.96071127306422
H         3.16004188152142   -1.52159481968870    1.09574503497922
C         1.83956313856749    1.47926234151323    2.42372340811221
H         2.16948567778674    0.43379106797931    2.44740442145065
H         1.08105783935545    1.61179117222428    1.64651849085526
C         1.27712500431688    1.87801072667415    3.78669865844761
H         0.96904189656786    2.92484117209951    3.75529124618729
H         2.06226390344074    1.76648253518134    4.53633861465069
C         0.09733321005844    0.99043952406190    4.16979332648933
H        -0.68203192258900    1.06452419775003    3.40718417626261
H         0.43462390225640   -0.04639327753639    4.21123122133019
C        -0.47266377833624    1.38651594678384    5.52509390334753
H         0.29068910879638    1.29491106838035    6.29329870069667
H        -1.30694574865524    0.74228911509992    5.79063857211877
H        -0.82404991590399    2.41603631831610    5.50792362616001

