103
CSD_code = OFEVUR | q = 0 | S = 0 | Stoichiometry = C39H60N3Rh | MND = 6
Rh        2.72946641807760   17.64804105348432   11.04286305584262
N         1.36825623410618   17.22247005389917   12.54206487946351
N         3.09050930426621   18.55667359076292   12.86472625815745
N         1.63100810231363   18.17390981037325   14.73257835631465
C         2.01663824328759   17.98978329592082   13.41624300704341
C         0.66628607581200   16.04042545727770   12.76989332066108
C         1.27933111486383   14.93868308060017   13.40847406703573
C         0.56951621200315   13.75417891511372   13.52258760839538
H         1.02834561059712   12.89684673548641   13.98944686840565
C        -0.72538265462844   13.63932315482584   13.05082938162688
H        -1.26217545730035   12.70890021210737   13.16429162895857
C        -1.32054326836027   14.71596881493831   12.42525693222001
H        -2.32952228934434   14.62067681858826   12.05252696284887
C        -0.64036925485408   15.91222467429083   12.26292549771360
C         2.70876718888657   15.02656602045995   13.90701783912592
H         2.88153638090711   16.03740557244211   14.28561177167548
C         3.67660763655349   14.80251803818746   12.74157814690100
H         3.47322230290067   13.84951915000830   12.25666103652720
H         4.70464632371442   14.80296838872288   13.09921239989964
H         3.56124302247396   15.61123267674478   12.00657402028677
C         3.02687198314184   14.05308686067798   15.04355291542670
H         2.27046132682774   14.09562193743211   15.82556307615487
H         3.98919337693758   14.31008211041621   15.48348965767493
H         3.09263088396035   13.03024509532202   14.67977283683594
C        -1.30680456722341   17.05521132982711   11.52879134216206
H        -0.56295608438082   17.85068470284662   11.40563730654116
C        -1.78313234487737   16.60849346247140   10.14257445725486
H        -0.99946789170552   16.06598769264784    9.61929435075331
H        -2.06958445618048   17.47270416976034    9.54572422378760
H        -2.64910764186286   15.95574785906539   10.22385752531467
C        -2.49576795197828   17.61667002122785   12.31391869921399
H        -3.23702649660931   16.84064746008772   12.49235016885395
H        -2.96827957674751   18.41928492632008   11.75050864166456
H        -2.18430427356980   18.01439853127773   13.27666614787722
C         3.61554786255980   19.82604678924887   13.10185446495359
C         4.99182422617934   19.96232351981268   13.36304873755957
C         5.53327146081709   21.22692746741179   13.53018881403924
H         6.58605302229344   21.33240623629857   13.74597037298186
C         4.74899074365047   22.35692441145623   13.41887994869175
H         5.18356492891468   23.33791601016196   13.54330301665605
C         3.40192445110200   22.22633911069419   13.13503777759479
H         2.80585662913009   23.11918058612202   13.02967636917316
C         2.81040210355365   20.98235919682173   12.98546785619826
C         5.89385548241951   18.75068101788925   13.44964571190147
H         5.29681921480784   17.87059482143069   13.18446078955507
C         7.06142787918368   18.86854436302188   12.46429914642951
H         6.70833465252776   19.15170117789657   11.47578632775761
H         7.58874632874371   17.91913625933815   12.38917094531994
H         7.77224916597116   19.62124853486640   12.79711885715966
C         6.44666211167769   18.55823614386482   14.86488875953633
H         7.02408747297929   19.42778033836935   15.17130263207396
H         7.09776020931943   17.68647788435415   14.89520950149358
H         5.64747252851720   18.41223670143751   15.58737122853464
C         1.33825354745455   20.87568042327890   12.63854043927631
H         0.93531605619468   19.97454118605366   13.10772784866463
C         0.50070035964888   22.05778135806326   13.13027693182476
H         0.69042608184883   22.94967525035150   12.53753121494653
H         0.71008277901950   22.28429150301439   14.17449981314736
H        -0.55722513537654   21.81752155140088   13.03683112459631
C         1.17853073775704   20.71515405376975   11.12399607165222
H         1.65653002148854   21.54179930697980   10.60165346814096
H         0.12391731787772   20.69189328515622   10.85554116326156
H         1.64339488639698   19.77220316714966   10.80352071037128
C         0.22921378332639   17.95652856653464   15.07427935281376
H        -0.26246537017670   17.83616105653651   14.10564468992068
C        -0.41867842405755   19.16112781620454   15.76169725701539
H        -0.10866634687749   19.23939058345157   16.79953085388397
H        -1.49910830461628   19.03133063947543   15.74661033964847
H        -0.17611626143408   20.08610207162758   15.24754815277361
C        -0.06588517074149   16.69023172297758   15.88695243493482
H         0.51269112817689   15.84892590591794   15.52150624315260
H        -1.11938864281857   16.44263959314761   15.77540959452009
H         0.13721112617879   16.83112412973105   16.94387011568378
C         2.65284382611010   18.57977854871231   15.69197128985243
H         3.58887287274705   18.47623487310971   15.13714546018457
C         2.74545499095886   17.65185391410885   16.90592616880101
H         1.93031846697113   17.82624756407235   17.60198410401388
H         3.67794386072240   17.85509191526184   17.42898774180697
H         2.74001402171342   16.60821346630225   16.60627769444519
C         2.57058381631776   20.03442151294614   16.17026370371270
H         2.32919270279701   20.70159774474153   15.34982509156655
H         3.54166409200332   20.32843547072623   16.56289458216683
H         1.83605327908988   20.15938367085264   16.95970191892082
C         4.60330249978039   17.51753727465338   10.04004409632378
H         5.37012390006007   17.44612642896897   10.80865610047826
C         4.04467840745575   18.76842331324990    9.79769623327012
H         4.42783564064671   19.61962698078959   10.36182912286192
C         3.39476397455262   19.14621687013708    8.48599898958057
H         2.92130607442457   20.12243266528302    8.60484758948039
H         4.16826198055115   19.25585145869721    7.71757478826961
C         2.33819665461861   18.12143047904794    8.02729983341553
H         2.77877499518830   17.41210072666874    7.32502727765038
H         1.54357688822056   18.64817265431191    7.49522637423270
C         1.73028612568646   17.35366131885976    9.18362930118044
H         0.67623975999733   17.56385671544787    9.35197920736208
C         2.22526942325138   16.13324668145239    9.63092737764861
H         1.52665775325619   15.43511111749372   10.09366048681601
C         3.45564372462537   15.47468182742142    9.04929907376057
H         3.70447990544124   14.60670820396258    9.66233399818287
H         3.22559189445072   15.10275658019499    8.04454921935923
C         4.67026032551594   16.42278943949058    8.99445587878067
H         4.74828317998405   16.88135021465472    8.00748453958116
H         5.58002678723917   15.83961495345830    9.15008928983873

