95
CSD_code = OFEWIG | q = 0 | S = 0 | Stoichiometry = C37H55N2Rh | MND = 6
Rh        4.33798415694650    9.12299918646069    4.05877389574208
N         2.78630433092440    9.05414671605307    2.68502783820563
C         3.31401598059003    7.99798839372498    2.06865567802099
N         4.40249045811956    7.59183398473370    2.70405038858844
C         2.74287152750735    7.41068604302329    0.76817113067987
C         3.74984960357955    6.54787649862015    0.00024692037454
H         4.65948367975102    7.09181946487135   -0.23089558657223
H         3.29751766359451    6.23218718707134   -0.93933836764396
H         4.02100404048806    5.65742420115270    0.55778469339106
C         2.30700603057295    8.56823515025129   -0.13880291933777
H         1.46182847610281    9.09311844307440    0.29643511967190
H         2.00564524176566    8.18210943678762   -1.11098699357937
H         3.11957402718515    9.27578770047693   -0.28683340654671
C         1.50688254822472    6.54131934753132    1.04253151372272
H         1.74458322853952    5.71638747347019    1.70922517955652
H         1.15191577292885    6.12352537396139    0.10139415656016
H         0.70267579992542    7.12970702965503    1.47454952678481
C         1.45240966678417    9.44603450246319    2.77701214064568
C         0.52714639280568    8.62937732636910    3.46916906472475
C        -0.78845868755853    9.04771122016124    3.57760277969055
H        -1.50290218557058    8.43498446862763    4.10442120605916
C        -1.21150052343783   10.24524043696627    3.03015623775197
H        -2.24597793916830   10.54467971386226    3.11348112767551
C        -0.29516812196772   11.06758349802773    2.40753353830646
H        -0.62085743717249   12.01914065699051    2.01474173441110
C         1.03545308457512   10.69645661852850    2.28330471538332
C         0.98193270344098    7.36494957747369    4.17045194302106
H         1.80534501520404    6.92637355390906    3.60295302367516
C         1.53736636163161    7.73196148303142    5.54952025524594
H         2.43647922397950    8.34567458020988    5.41999744244672
H         1.80490581854945    6.83134547495940    6.09921725880039
H         0.80387874017890    8.29222263597060    6.12599002760737
C        -0.10714349281073    6.30045721028456    4.30282599640317
H        -0.84734694616750    6.58270665300750    5.04792084433748
H         0.34074394208185    5.36068312306411    4.62114745315733
H        -0.61231058140788    6.13295697913217    3.35400816608125
C         2.01866723159089   11.67575766920794    1.68117269199927
H         3.00517830050117   11.19840185916683    1.67416615437005
C         2.07890356566729   12.93703489352465    2.55204512301317
H         1.16012873859827   13.51064799303662    2.45327960399195
H         2.90820007619738   13.57234038301891    2.24568605320610
H         2.20084838693546   12.68044676773754    3.60154750616019
C         1.65962298389650   12.07923860141816    0.24896282953911
H         1.61191992569045   11.21714416365730   -0.40948195685604
H         2.40996302787997   12.76575514402183   -0.13896998579431
H         0.69540671701700   12.58132616163071    0.22012405287266
C         5.47852347399902    6.81265407065948    2.28832154426193
C         5.52516509052673    5.44693291853261    2.62161472981751
C         6.59221065510481    4.68073558142894    2.18115774320754
H         6.62647541087633    3.62693428420335    2.41521826685386
C         7.61279472332893    5.24378688746986    1.43900173178563
H         8.42479211683698    4.62939455537338    1.07840707753529
C         7.60857958548151    6.60347719586162    1.19073410202176
H         8.43380305729894    7.04065160411355    0.64911942823338
C         6.56961197958028    7.41188890497305    1.62632844582221
C         4.44817599695089    4.82706352101327    3.48389250736821
H         3.71136216996893    5.60482144984535    3.71235700196628
C         3.73663728705387    3.66566065177073    2.78657697125116
H         4.42575903352344    2.84423523444119    2.60434543741178
H         3.31958834008656    3.97419241338440    1.83051134663043
H         2.92516321144080    3.29618437095191    3.41128968445395
C         5.05171482412790    4.34256945452926    4.80570838705884
H         5.73838351965776    3.51643189975756    4.63605855823777
H         4.26538261106643    4.00276308525285    5.47716476863742
H         5.60221611320163    5.14482529712852    5.29216533972854
C         6.64707454116195    8.91336076585985    1.43693713965817
H         5.90999676720786    9.38154603028612    2.11707994494775
C         8.03497335132972    9.44883981469782    1.80507641500470
H         8.38180215433957    9.02596905281511    2.74429956134888
H         7.99942642365739   10.53171669410812    1.90543282843889
H         8.76376036531178    9.21062813115041    1.03364744861277
C         6.31431992537197    9.34024455716844    0.00590193363744
H         6.94508008541639    8.81146977281377   -0.70699894447146
H         6.48273827678593   10.40925465886342   -0.11215845838739
H         5.27526691997512    9.13479591072178   -0.23422755481176
C         5.30982889614786    8.34926237191626    5.77559066766836
H         5.23658836099971    7.26163922699984    5.72965980643146
C         6.27358930577402    8.96620462165016    4.98815248045993
H         6.89723015025322    8.32260062192867    4.37091526691516
C         6.87839047022868   10.30600922657008    5.34326575856107
H         7.91226566817210   10.34063404047205    4.99511395168979
H         6.89948163044891   10.41201720034423    6.42905132059049
C         6.10029745197343   11.47401707612840    4.70809642562934
H         6.19101775304901   12.37011073662189    5.33206836871159
H         6.54617639108556   11.71102729082949    3.73953358115755
C         4.63457004537636   11.17207135383370    4.48673932514341
H         4.19957129595833   11.74978276718259    3.67297669164103
C         3.77601432751317   10.66177706447836    5.45365739893215
H         2.71173196770144   10.86450080109512    5.33557019491246
C         4.21591947854509   10.37858330357489    6.87416625847176
H         3.36808722049845   10.52106979458392    7.54660906300748
H         4.97866745910768   11.10561857038128    7.15874077756332
C         4.75534174956759    8.94354620792317    7.05146917605231
H         5.53879493555680    8.93228706606500    7.81736063510744
H         3.94909087666617    8.30092690793606    7.40952366954884

