56
CSD_code = OFEXED | q = 0 | S = 0 | Stoichiometry = C21H32OPRh | MND = 6
Rh        7.48639576495234    9.22606791123624    3.60728682260877
P         8.96534569950556    8.05685728652662    4.90969450436577
O         8.30898325614308    6.73332514444610    5.57231251036265
C         6.00987528204241    7.41800815123429    5.57506473463300
C         5.88524742461868   10.01943689346751    2.35700279555351
C         8.62728832345879   10.71101001913492    2.49388751786403
C         9.65349874872134    8.83855588962003    6.45209868282831
C        10.47668500124549    7.23789950639227    4.15074085187198
C         6.16926436776783    8.68829507744107    5.01516597578828
C         7.67216777035060   11.77165508191006    1.99724498880508
C         6.98773471511174    6.35063465782177    5.17115134511697
C         6.14744122226474    8.69929493354165    2.01245257475522
C         5.38746724939719    9.71891662228159    5.54460467666893
C         8.89535409187610    9.51649845244869    1.86818972349961
C        10.66075663138497    9.92040872071392    6.08621786430986
C         6.31451480604746   11.21367733943533    1.53334121105133
C         8.49454579117129    9.43536327277528    7.24054625950235
C         8.25155073895263    9.06103832828032    0.58056893855893
C         5.07047799895607    7.17776285844470    6.56661255932377
C         4.45365124983192    9.48489771795988    6.53953523987240
C         4.27383854253877    8.20605043258356    7.03716303354725
C         9.95599162030728    6.28873952360055    3.07326985591655
C         6.95202851009755    8.25985665339309    0.81045777542774
C        11.32327019721715    6.47507626079475    5.16181145129579
H         4.99870841932750   10.19116971539585    2.96250980374216
H         9.38458091525885   11.09675200985432    3.18221594210986
H        10.12679398805042    8.05273990844363    7.04958777656804
H        11.08078186245279    8.02182142116905    3.68291189842528
H         7.49979790270373   12.48090228623995    2.81216202114184
H         8.14869128480140   12.32902830011509    1.18177350754955
H         6.78779008181425    5.40432225633844    5.68108950938497
H         6.96355929078341    6.19233933610117    4.08532944568077
H         5.45473008613500    7.93688303515384    2.37332882701030
H         5.51335806585351   10.73753824882597    5.18600304965430
H         9.84016928381094    9.03440200630491    2.09720067116528
H        11.51154008287763    9.51273751641470    5.54457180291397
H        11.03147162468603   10.41504787002213    6.98312562759669
H        10.18060983590214   10.67051500734463    5.45865205494301
H         6.35162532017686   10.93831936372450    0.47858529939499
H         5.56476006940212   12.00230599579192    1.63096094856677
H         7.76435884216108    8.66804985703980    7.49018049448702
H         7.99237162836553   10.19871383905939    6.64481114944086
H         8.84941197966082    9.89137102430720    8.16401835897782
H         8.05346365511538    9.92857776127549   -0.04994264671305
H         8.95465683459054    8.42530171919172    0.03691824522770
H         4.96843753972712    6.18151463205742    6.97677822942268
H         3.86154468367633   10.30318963899468    6.92667450339865
H         3.53568168811577    8.01581005857951    7.80280089767080
H         9.20785699321702    6.78474035339610    2.45404398772356
H         9.49120744601611    5.42321300048402    3.54162494203109
H        10.76577955369705    5.93875227893168    2.43417824818966
H         6.31896817153408    8.32759742035480   -0.08190599664321
H         7.20483872591520    7.20291845179982    0.93903530505223
H        11.87222187582580    7.14568717330050    5.81796374669743
H        12.04641359868250    5.84867852946844    4.64001076082327
H        10.68794366566997    5.83273324894722    5.76787969473136

