55
CSD_code = OFEYAA | q = 0 | S = 0 | Stoichiometry = C20H28BrClF2IrOP | MND = 6
Ir        1.16735876629713    4.05058129786278    9.62059726963813
Br        2.96972115978950    3.62406453177409    5.02254826503810
Cl        1.06228854203487    2.16025146884245   10.95051833778736
P         0.38812792568101    2.56183025137201    8.04176310147830
F        -2.13435717880768    2.70038749721763    5.40432503434609
F        -0.18899943837038    2.24728769466959    1.17382213296950
O         0.38709820643400    3.29432263336580    6.53587634258911
C         0.56050304140596    5.81403771780056    8.62023933005277
C         1.92257444021549    5.59727630609824    8.36594172662783
C         3.02335961132509    6.42696536046205    8.99412751100982
C         3.55000311631375    5.79696124788036   10.29700531583917
C         2.50742475821006    4.97986659749998   11.02264021510922
C         1.21752186659101    5.41139915376007   11.30149643830374
C         0.71126986440108    6.79717812443173   10.96448388069393
C         0.02759818980449    6.84953224206999    9.58483604108486
C         2.83746440330241    1.24913940634489    7.96022321637711
C         1.34412470355360    0.97427152905955    7.82770725598234
C         1.01346325976490    0.20120184918803    6.55593527468518
C        -1.55532920980019    0.88541828386842    9.27818822343454
C        -1.37217677519274    1.96051102752832    8.21499846960803
C        -2.20714764779444    3.19404086184109    8.54889671749415
C         1.29397515030875    3.08558688518129    4.34711624989824
C        -1.02523252527761    2.70338312257905    4.64579078921415
C        -1.17890037400412    2.44680325600413    3.29631728803300
C        -0.06212364441713    2.50114707519368    2.48403158267380
C         1.17839190608023    2.83874144511216    2.99125403362514
C         0.21223871290496    2.98582290156636    5.23462046306109
H        -0.13384389919689    5.59630997686679    7.81085578524923
H         2.18186541898949    5.18729302199479    7.39487618087698
H         3.84971245090049    6.51297932455567    8.28706503985917
H         2.65080807968289    7.43487574452962    9.18070900626105
H         3.93071874098956    6.57459142472260   10.96749774277708
H         4.38676015362396    5.13807472001426   10.05846880197954
H         2.92622933044118    4.20119777509384   11.65695779968904
H         0.69270341402352    4.91890286595530   12.11723566787592
H        -0.00662711704954    7.10771606678680   11.72550421706593
H         1.54568289841147    7.49839605240935   11.00231575844945
H         0.13616391519649    7.84809697546613    9.14828715100736
H        -1.04176359573524    6.66881329707483    9.71140143397029
H         3.03050362322436    1.77020400853938    8.89632530371479
H         3.20755321062405    1.86266650438351    7.14381580545932
H         3.39348841423229    0.31347774867718    7.96607744611517
H         1.03990433687185    0.38828614614971    8.69963267088076
H        -0.06124361900115    0.10002405838640    6.41123826704273
H         1.43940302953226   -0.79924481180143    6.61584443641873
H         1.43820547437686    0.68631607890055    5.67878769922920
H        -1.11982886601782   -0.06234185110336    8.97034316622739
H        -2.61942585718602    0.72558743402708    9.44604337270559
H        -1.10066444457959    1.18783328669881   10.21727738375670
H        -1.69355449927434    1.55115189996793    7.25333735605199
H        -2.09279519919334    3.95901605877591    7.78309145977018
H        -1.88155829581501    3.60612083455448    9.50347491519773
H        -3.26240258814076    2.93774118229756    8.61905321632014
H        -2.15426725398035    2.22560500522874    2.89550570597148
H         2.03383191329370    2.91569940230464    2.33957670341845

