55
CSD_code = OFEZOO | q = 0 | S = 0 | Stoichiometry = C27H25O2Re | MND = 8
Re        3.27627635023455   10.01531611017794    2.87352207482384
O         3.27358907789718    7.51535708841348    1.07153571569749
O         0.53583765674011   10.96472234881876    1.82566863724479
C         2.48830226872955    8.93083555537562    4.45028194345439
C         2.93800833272902    9.26804539735837    5.71655911738474
C         3.29792730903602    9.57037164176422    6.84476988695177
C         3.61070960154506    9.81389578653575    8.19482730641251
C         2.83555165759178    9.19344371180492    9.18390874557319
C         3.11498160660224    9.40432818355276   10.51804634111343
C         4.16717637083189   10.22794971771541   10.89048218082049
C         4.93973673029606   10.84484477026636    9.91880994813065
C         4.66785616697574   10.64521921006683    8.58028862319536
C         1.55424638621138    7.80026020181058    4.46394071289561
C         0.63206201384348    7.59084802433252    3.42865764088441
C        -0.23075997184439    6.51509505287864    3.45517425660015
C        -0.19492432285656    5.60831680803086    4.50458430908142
C         0.71400726285008    5.79287412940014    5.53302644904096
C         1.57035155414723    6.87580318611685    5.51864657813840
C         4.78097740437274   11.43974122634926    1.71644048863790
C         5.53410412294881   10.47820874530775    2.45384730371417
C         5.30386420885922   10.71088621000874    3.85243655412825
C         4.38389428979515   11.79005256404230    3.97125018712325
C         4.05673196378690   12.23875139784304    2.64821850413464
C         3.23179852812013    8.43858511364290    1.75988531233745
C         1.53345183806977   10.55217243712264    2.22962541838922
C         4.91194272022738   11.71055090755307    0.24881798293695
C         6.61522713846812    9.60929317982632    1.88507877374818
C         6.13290031798585   10.15864503601894    4.96997570402234
C         4.08727652033806   12.53337422830902    5.23728043599542
C         3.32107210238823   13.50104832854160    2.31613753027908
H         2.01643254977414    8.55571475319975    8.88479765436315
H         2.51192965751226    8.92425988905573   11.27474313482228
H         4.38458465483861   10.38864521640412   11.93586345297773
H         5.75951426118818   11.48615434855161   10.20843551594753
H         5.27500156631966   11.12833938074910    7.82904369312225
H         0.59840156933121    8.29628563658463    2.61099926074603
H        -0.93778472260260    6.37830492884010    2.65080852147218
H        -0.86900881529717    4.76492988653205    4.51914845369456
H         0.75440865424289    5.08883487245902    6.35157101069015
H         2.28322406974598    7.00253244771433    6.32027763581122
H         5.73180566447671   12.41123307756479    0.07136312216389
H         3.99996519531336   12.14676058242483   -0.15524678740079
H         5.12176893562530   10.79641252968096   -0.30403857196964
H         7.56060348378760   10.15803265773537    1.86878135232499
H         6.38166836898735    9.30875360933556    0.86476963688280
H         6.75637777555423    8.70612186485231    2.47772896079174
H         6.83394500955870   10.92266949648283    5.31767007571243
H         6.70766981805726    9.29356041799378    4.64414023949392
H         5.51519923859359    9.85626284929941    5.81648990846871
H         4.98905368127830   13.04486184823111    5.58521238786737
H         3.75349282469770   11.86066199925844    6.02782793746088
H         3.31219924576757   13.28130941834925    5.08082389548891
H         4.01134554477115   14.34820280271800    2.34481967813147
H         2.51651949608109   13.69455162057692    3.02464905120563
H         2.88710506548041   13.45316756642620    1.31859611682773

