64
CSD_code = OFIBEK | q = 0 | S = 0 | Stoichiometry = C22H34F4P2RuS | MND = 8
C         5.68702919177266    7.18116836771898   32.13127526649073
C         5.82305649036077    8.59933621908519   31.93478366347793
C         5.11426177311801    9.26799043075230   32.95995710151686
C         4.53237677058101    8.26241589020386   33.82058165941326
C         4.83095707773289    6.98202464956940   33.25608041146218
C         6.06385379362695    6.17012148241157   31.08855710979455
C         6.38902764418243    9.21929640204584   30.69509335805237
C         4.72258875665534   10.71450867332367   32.92373136106627
C         3.47950283895868    8.51664045518536   34.85989011117754
C         4.11788556317276    5.71092786522896   33.60395191963985
C         7.85344257677078    4.71191540629677   33.84662794876483
C         6.52894507337108    5.22605156041903   36.27720190569403
C         9.16534566558966    6.12729643883804   35.82116740871351
C         6.92321456041102    8.79713181586870   37.33031377869946
C         9.09858052093587    9.84590993296987   35.85765202204851
C         6.56771939368677   11.05098758582867   35.79876190508042
C         9.57921677929508    9.30208138043269   32.12603750231885
C         9.01260445450649   10.57167333617912   32.29869357412648
C         9.52607247967002   11.69834326044108   31.68651885177070
C        10.64007855066391   11.62765846663385   30.86980314118708
C        11.22182104858974   10.38121520760986   30.68722778228921
C        10.71383307634590    9.24867369109036   31.29304468929837
F         7.91662807599964   10.69637648509833   33.08618133673146
F         8.92719435455538   12.89013472492730   31.89049537435470
F        12.30627750293964   10.28507726101768   29.89705023912872
F        11.31115427416616    8.06329073820308   31.07959933119861
P         7.52178655828358    6.09947966406571   34.99808957193930
P         7.33045439330385    9.38928284185404   35.63294299581306
Ru        6.74983619592154    7.97579152191519   33.92191138828245
S         8.98066737171753    7.86306490717709   32.84204259078403
H         5.53664770885677    6.39002347592932   30.15766175266000
H         5.80005754783913    5.16162395068802   31.39783811550570
H         7.13389324657289    6.20069187936543   30.88203250823772
H         5.66691520756319    9.11068200194634   29.88178600574274
H         7.31201914936888    8.72769058092111   30.38941277028239
H         6.58432970669459   10.28011701565866   30.83217502583318
H         3.95782813761636   10.85094344258465   32.15500684595788
H         5.56417171326767   11.35547738281828   32.67423885577616
H         4.30808856544825   11.04114946730950   33.87316732524750
H         2.49245573180684    8.53113817734629   34.39107626644034
H         3.63399745351055    9.47451781651577   35.35255536042096
H         3.48246083629621    7.73852909722274   35.62177089355578
H         3.24041923149327    5.61685967899292   32.95902158655831
H         3.77315763101749    5.71891547352810   34.63571237438829
H         4.74001312101534    4.83182184355928   33.44874055316293
H         8.27864876052365    3.86543205612461   34.38547745067942
H         8.55901900815335    5.06260026546328   33.09422228226910
H         6.93555451293193    4.40334038056331   33.35338438163661
H         7.08282786524393    4.36455178135957   36.64872926053244
H         5.59415310210096    4.88935323886689   35.83744292519759
H         6.30387689558101    5.89847913282476   37.10124104970616
H         9.41624079588583    5.12899171634628   36.17946815201144
H         9.17231201955308    6.82665638552631   36.65442155491165
H         9.90069018612074    6.44558348495908   35.08239729282995
H         7.14670496784688    9.56648066498742   38.06871683409987
H         7.48707057007012    7.89701241423956   37.56119496112430
H         5.86001455580889    8.56242595854217   37.36255183392134
H         9.27540818774974   10.18500660889198   36.87806813362610
H         9.34727919914271   10.64646505634560   35.16453494132961
H         9.72903743643498    8.98727458837828   35.63260685631678
H         7.03426911499683   11.57184720929173   36.63493927275633
H         5.50442072412266   10.93498420295829   35.99746720092172
H         6.70272339859818   11.63017489475583   34.89196575975497
H        11.04078090389420   12.50429201281496   30.39280831626450

