41
CSD_code = OFICAH | q = 0 | S = 0 | Stoichiometry = C13H16BBr2N8Re | MND = 6
Re        6.26400366763193    1.86884458841367    3.59839535047038
Br        7.79211670916387    0.20158416816109    4.63858934591314
Br        7.66542633553556    2.21781917897518    1.57053448574638
N         4.86802712671496    3.30144015963716    2.92622564608243
N         4.39878248520794    4.23299633134079    3.76041175972967
N         7.14230190068639    3.47386593385546    4.61528196822469
N         6.37726637975997    4.37770469286025    5.24039555819944
N         4.96449236409527    1.76871566616622    5.25996146787200
N         4.48876793913634    2.88611385034822    5.81583789553637
N         5.21680533349595    0.28974506186377    2.60289848555207
N         3.61937748766208   -0.99501078335274    1.81845719971456
C         3.55179255423057    5.03540255407824    3.10349897567395
C         3.47418638437617    4.60543394387486    1.79380356763593
C         4.32685224289500    3.50654422803064    1.73210094307066
C         7.16219220444170    5.30275571014424    5.81373112554333
C         8.47602998616413    4.98238062685911    5.54801683371863
C         8.41010941673482    3.81728086435022    4.78650529665263
C         3.72060283921905    2.57087461255905    6.86624036180990
C         3.70205661800610    1.19623110361672    6.99323993905758
C         4.50556207525574    0.73498006170077    5.95398584662207
C         3.91348426712894    0.10554618325385    2.53144817353083
C         4.80522606083089   -1.53631948391341    1.41601627234971
C         5.78841864188420   -0.73294192680837    1.90760781902165
C         2.31229331891372   -1.50966717725711    1.52447301284805
B         4.85041927811666    4.26467755308936    5.23248319019057
H         3.06533046882676    5.85060618633857    3.59902798683469
H         4.33321424643256    5.14171799858409    5.82947982075736
H         2.89457904980374    5.02546108500408    0.99853191440527
H         4.58031792238821    2.88490729413799    0.89440373479851
H         6.74111209271785    6.11794102982033    6.36635418417282
H         9.35496348482049    5.50865828493517    5.85601504054959
H         9.20513878589230    3.22991959189241    4.36733480184440
H         3.24374585551775    3.33080026752316    7.45093011546069
H         3.19121104952387    0.61236881806088    7.73010657008739
H         4.77942213290563   -0.27070164430052    5.69714658445464
H         3.16955574045102    0.73823657313846    2.97651880809853
H         4.85559215685820   -2.42759899972122    0.82690237542131
H         6.85285750070374   -0.81859000650372    1.81117721041578
H         1.56162389758698   -0.91067440525212    2.03684034644411
H         2.12254835561086   -1.47446312374192    0.44971364722304
H         2.23159364267635   -2.54518665177484    1.85927633827356

