60
CSD_code = OFICEL | q = 0 | S = 0 | Stoichiometry = C21H29BN7ORe | MND = 7
Re        3.34962324657732    2.18519710569638    5.25737436237622
O         4.31885207463455    2.09948832150866    8.17750245232895
N         2.60265934582605    2.24536684061332    3.22886622096700
N         1.32420596309029    1.95924482480928    2.97693741830534
N         1.50954486294505    3.19749903873401    5.69200951135554
N         0.38291928081326    2.79504459951323    5.09861159622940
N         2.12057200244582    0.42693153846873    5.42257840915088
N         0.91076674654845    0.39657901066760    4.85885103923680
N         4.99097864561196    4.81177211762102    4.77635366112147
C         5.29271623177056    0.13752175261438    4.83453708517601
C         5.66254273034835    1.10832645258953    3.97649110497492
C         6.88983944383436    1.94453908508060    4.17864022090645
C         7.34258076206444    1.89178755398973    5.63247916807012
C         7.45456484074428    0.43678549201355    6.07290268539589
C         6.07436192233972   -0.21805772548636    6.06813890222484
C         3.95467659825458    2.12043066259477    7.07276598558707
C         4.37784924639243    3.82949643030697    4.99842856209962
C         5.66966274831100    6.04510443207480    4.89308419097312
C         4.62719964730164    7.15583240463846    5.06291803532609
C         6.58739304495462    5.97440080305069    6.11818706258972
C         6.48842506013440    6.26785411984142    3.61726071249837
C         3.15480111636301    2.62864181591649    2.08658272524210
C         2.21344317914618    2.57421858563176    1.05952173607984
C         1.05797501109180    2.14468123083697    1.67637712488541
C         1.21499128350546    4.22090331640827    6.48313698037248
C        -0.14925800270810    4.49339621481464    6.40068993868789
C        -0.63769749471789    3.56202064920626    5.50903998507003
C         0.30236609462744   -0.76552074845719    5.13700289859076
C         1.15342270294608   -1.51877527293024    5.91640430590886
C         2.28312613610637   -0.71665186884560    6.07269705058617
B         0.35526890785033    1.61043408018714    4.11170868288143
H         4.52002059469665   -0.56702878771245    4.54615294627302
H         5.20549415621644    1.16377268576693    2.99544471631265
H         6.69416952022991    2.97453430046169    3.87696543866534
H         6.59619407708558    2.40003041884692    6.24783371605709
H         8.30288800927902    2.39813636057235    5.74765429942122
H         8.11713582073203   -0.09644378987300    5.38604518559645
H         7.88645726582065    0.37347984873595    7.07248133789303
H         6.17449422547067   -1.30648363583992    6.11689866828387
H         5.52554695518727    0.09577466483262    6.95852743379461
H        -0.73810450682680    1.41056212076494    3.70321497258254
H         4.17938482276866    2.94626911763359    2.03851370948645
H         0.07958517381570    1.96353367758791    1.27948664352225
H         1.97966780860240    4.69877180657887    7.06506655445865
H        -0.69668137815498    5.25519999366200    6.91594447743949
H        -1.63240381785883    3.39934804502107    5.14643579113449
H        -0.68088301124065   -0.97800417386153    4.76865072556828
H         0.98515077303228   -2.49737591116826    6.31677399676495
H         3.17681840639570   -0.91957421406014    6.63099711370791
H         7.67781473395253    1.55374785070602    3.52352042313289
H         2.35670233876767    2.81601464130998    0.02627148327227
H         4.03328136271019    6.97435740918041    5.95494506543361
H         3.95973757224627    7.18079846688535    4.20500783436955
H         5.11978638138702    8.12035663348409    5.15446842087133
H         6.00159702168569    5.76473478514435    7.00931714335622
H         7.31805860112350    5.17895970662969    5.99606450530998
H         7.10939428603584    6.91885782986497    6.24784887435637
H         7.22675627177309    5.47796258034169    3.49888025578751
H         7.00534710261902    7.22232854837730    3.66742356312453
H         5.83691605333935    6.26818615637159    2.74648488882676

