56
CSD_code = OFIDOY | q = 0 | S = 0 | Stoichiometry = C20H23CuN8O4 | MND = 6
C        -0.19371055645043    0.17537245287660    3.18953122860867
H        -0.06849866902715   -0.50030640332975    4.01121836609729
C         0.65357388113299    1.09544048616732    2.63155826445350
H         1.65317960289393    1.36579958467717    2.90310694049086
C        -1.18464981994661    1.18728114140138    1.52212988933785
C        -2.20686448798532    1.58401708354361    0.55268781145812
C        -1.69850923494643    2.12840084491506   -0.67475245720675
C        -0.33749834892571    2.63201570661790   -2.26823896280642
H         0.60987288895212    2.75882493188612   -2.75047590423025
C        -1.60435920198866    2.82062005723594   -2.75036398633067
H        -1.95362919636935    3.12802614550844   -3.71601744949822
C        -3.89245227476751    2.62984025934465   -1.83056521809779
H        -4.18006521389425    3.67174032823645   -1.65027646972630
H        -4.35055590726001    1.99858982167386   -1.07300396536984
H        -4.23018474375897    2.33033269878992   -2.82254411531202
C        -2.50734504603348   -0.58535850120131    2.72213928646309
H        -2.77174803122441   -0.56717779457600    3.78017487651838
H        -2.29269743937561   -1.61586584382494    2.43001380407053
H        -3.34089466795450   -0.20635444912172    2.13420691323315
C        -2.19620623327894    4.09306029186318    2.91383886343678
H        -2.72041316740062    3.78640563207198    3.79673903395253
C        -0.85585735649701    4.25330114289461    2.66469894480031
H        -0.01433591863679    4.10658332529733    3.30942260116831
C        -1.89480149293212    4.77304957421827    0.85855928917515
C        -2.16020565686552    5.29039375484288   -0.46269110971725
C        -0.98133544609245    5.60676722260297   -1.26275744294945
C         1.02480065738515    5.70263096589208   -2.01709540180233
H         2.07596414080639    5.50212437389431   -2.04858115270146
C         0.23684778259464    6.40947458033737   -2.89097673009938
H         0.47825408613742    6.94237751978216   -3.78836084464434
C        -2.18510101055855    6.93864237282860   -3.02136967417271
H        -2.82283046236840    6.17197068692683   -3.46512396980346
H        -1.86400638615141    7.63631694705803   -3.79346120351000
H        -2.77403962076349    7.46462878241677   -2.27059469739072
C        -4.26872448261070    4.29479054329395    1.58533046311105
H        -4.58262485317086    4.93823789087145    0.76704510739859
H        -4.78680438215868    4.57360593434036    2.50235826225731
H        -4.50749943182493    3.25493547628894    1.33838027917552
C         3.01692602222002    3.52431019267314    0.40995755708824
C         4.52107907423009    3.61408648339984    0.57640430334949
H         4.99107159867522    3.81971493927629   -0.38140162870434
H         4.88718229047246    2.65808510579161    0.94730901909221
H         4.76832648463317    4.38691507203620    1.29902080959544
N         0.02818242780705    1.71220052050155    1.61313266202389
N        -1.36008108810189    0.24995331746500    2.49427736739787
N        -0.39887134868386    2.21975133478349   -0.98430475636181
N        -2.46501889257995    2.50422147110694   -1.75050091669603
N        -0.67972383069321    4.65905837682781    1.39514843006938
N        -2.85155303338421    4.42131389589215    1.77579308222981
N         0.26205110725387    5.21536568990095   -1.02541244111175
N        -1.03066517669653    6.33956261218459   -2.41470043662985
O        -3.42139167280467    1.42290463182111    0.78540964980474
O        -3.30451312941684    5.48148836167499   -0.90513093454643
O         2.53434015667582    3.18229420894044   -0.69163803328924
O         2.27632287994382    3.78157209350175    1.38681439727506
Cu        0.67079183177028    3.38136612365828    0.25263239957661

