115
CSD_code = OFIDOZ | q = 1 | S = 0 | Stoichiometry = C52H58CuN2O2(1+) | MND = 4
Cu       -5.13236332250089    8.95398527768968    9.52194189480177
O        -4.43060457502717    8.00129036937044    8.10588063306565
N        -4.70102080012654   10.51513439279007    8.54963281872262
C        -4.19999701185582   10.19334909790249    7.36478476962567
C        -2.15010682175468    9.95678349192896   11.63100276377818
H        -1.24124537079349    9.47739970935461   11.30027950439303
C        -3.13487772724882   10.62091151922026    5.24793152315972
C        -2.88616359859551   10.71783770895617   10.74116535781292
H        -2.52412767277978   10.86096391767098    9.73330820841279
C        -3.80194735917349   11.08743249997911    6.34634319030878
H        -3.97286098252265   12.13989782087850    6.49145228387429
C        -3.93268835388837    8.76893630665716    7.22990650154584
C        -3.13770984021656    8.31407680097185    6.12700294447405
C        -4.05079287189773   11.36532612919195   11.15699678719191
C        -2.56859403023349    9.81895605655278   12.94318435486576
H        -1.98440401587690    9.23661484499609   13.63840642128166
C        -4.45944327254191   11.21955596437764   12.48284765857755
H        -5.35876827468885   11.71333044553613   12.82123246564524
C        -5.10750464896934   11.78242966436827    8.92101759249184
C        -5.27488732888834   13.46128030100173   10.64444090702828
H        -5.03174863949216   13.80425740308653   11.63881681567782
C        -2.81806759856172    9.23331983260955    5.16942543293649
H        -2.25799838671468    8.90694908076090    4.31032660134241
C        -2.68650506195574    6.86453454422731    6.08062181952598
C        -6.30454763036155   13.83784560445581    8.51147928825253
H        -6.88901267490978   14.45958510143379    7.85121840053345
C        -5.99896280104053   14.27471447419187    9.79265422677706
H        -6.33022090013216   15.24578923842868   10.12590554044533
C        -5.86407059796770   12.60551218684080    8.07941779054000
H        -6.13209030451363   12.24646283657169    7.09834398924388
C        -4.82613283160169   12.20995539446142   10.23752711253742
C        -2.66903077989597   11.52392021984694    4.12297580042432
C        -3.05821948419417   12.98786005632553    4.34316249344816
H        -2.59068238669663   13.38998387539004    5.23883127500529
H        -4.13709494092090   13.10189673439633    4.41904787386504
H        -2.71927946147848   13.58043096820670    3.49721574000215
C        -3.73033918033998   10.44493462316584   13.36387947555675
H        -4.06370961994002   10.33776811379722   14.38552211853361
C        -1.13912079535481   11.44422177439590    4.00935634180077
H        -0.79477769589785   12.12148126707991    3.23220210275002
H        -0.80262668731326   10.44335771043337    3.75580167011271
H        -0.67497071003310   11.73518210568838    4.94908416939126
C        -3.91362006293125    5.95194101961833    5.96242674067060
H        -3.59801994636116    4.91169456807207    5.95393170938698
H        -4.44630032862274    6.15937196607949    5.03698276943988
H        -4.58835894735027    6.10483253908347    6.79922048155047
C        -1.92762251505436    6.55033940878948    7.37896431175028
H        -1.06785296993577    7.20936507724833    7.48410487487700
H        -1.57307997623732    5.52306822082071    7.35744910208600
H        -2.57058971253307    6.67300602266844    8.24576917198939
C        -1.75534385197739    6.58211027455617    4.89895916958583
H        -0.86780041928161    7.20955007878285    4.93760906311823
H        -2.26266580921041    6.73127286131810    3.94864167392254
H        -1.43256556002753    5.54493016560525    4.94120454186804
C        -3.31558570277728   11.04476401794321    2.81388869671267
H        -4.39991452673784   11.08918899766271    2.88929215641247
H        -3.03017144234221   10.02554628379896    2.57070937535728
H        -3.00167312163412   11.68717394736003    1.99531915251732
O        -4.67720427648836    7.87714495232339   10.94978775197289
N        -6.71649203745026    9.36133860915333   10.46885356361741
C        -6.71715123349035    8.74872904304826   11.64510729643801
C        -7.47053345383274    6.92791620432719    7.33341038939633
H        -7.49842469775327    5.89571152629880    7.64800718449101
C        -7.69121417588718    7.99062647845829   13.71230888817521
C        -7.77093063002254    7.92856817285338    8.23983622523061
H        -8.07174707444269    7.66660436147087    9.24389553050672
C        -7.72552975446132    8.82643058791975   12.63101223163975
H        -8.54937474901132    9.49982697034148   12.46957102718565
C        -5.61463092674410    7.81139305495087   11.79939685438779
C        -5.64410429009556    6.88151539261739   12.89031580722704
C        -7.76467974464295    9.26741594494561    7.84533635631916
C        -7.14739982968943    7.24535821445739    6.02552991844237
H        -6.92760917233810    6.46169794504865    5.31761623363820
C        -7.44194959336874    9.57200355778722    6.52261217631430
H        -7.43465078644218   10.60245127763033    6.19859571764121
C        -7.60463512924199   10.35434930257554   10.10071799995159
C        -8.96941745691178   11.36672228585864    8.39084698856678
H        -9.38820242083604   11.34293398458550    7.39608280742430
C        -6.63901882052218    7.03417894161518   13.81295538729574
H        -6.66030184252614    6.37076911496612   14.66008976948257
C        -4.59560747292953    5.78518142187640   12.96409213854610
C        -8.77969464713492   12.41656091878045   10.53885532663712
H        -9.02416160416999   13.22490276852249   11.21032989498062
C        -9.31039182696549   12.38891129405368    9.25691320136034
H        -9.98434168243362   13.16699177393706    8.93418587636367
C        -7.93664921002409   11.40997515643635   10.95725214239237
H        -7.49327613181227   11.44455276354902   11.94018277446991
C        -8.11161448198670   10.34480792101172    8.78278171576496
C        -8.75641252861034    7.99662390748693   14.79084973065481
C        -9.82861511648093    9.06303084946779   14.55355952412120
H       -10.36736118211626    8.88176751671551   13.62649789815804
H        -9.39420725373739   10.05968407768777   14.52745918290601
H       -10.54918901859303    9.03461511867344   15.36694207940418
C        -7.12570140222391    8.57099835276816    5.62504442934154
H        -6.87199409708601    8.82496168518230    4.60647967227785
C        -9.44306511194825    6.62278229857573   14.82730885319923
H       -10.23453339497089    6.62944734830355   15.57211787373186
H        -8.74769421962412    5.82868053084538   15.08262517963895
H        -9.88405322263101    6.39524361223331   13.85931953044893
C        -3.21017806300618    6.42072383211427   13.13601229662643
H        -2.45175134406620    5.64302859283633   13.17783795337944
H        -3.17223561535376    6.99157421094950   14.06135009432421
H        -2.98586466615988    7.08236175920800   12.30483748570554
C        -4.63999341671786    4.97888805650571   11.65726068932239
H        -5.62627181624974    4.54099189711905   11.51570752020693
H        -3.90916533982846    4.17529029475503   11.69691585215023
H        -4.41089942220785    5.60883298198796   10.80259061011021
C        -4.83766088549156    4.82436675676003   14.13084783872865
H        -5.81227239370465    4.34781227712549   14.05379440822632
H        -4.75879129799065    5.33415267653918   15.08825430675332
H        -4.08219949090386    4.04298415685629   14.10990870604684
C        -8.08494374840174    8.28068493154404   16.14337232195829
H        -7.58256427595049    9.24528238513940   16.12112302628797
H        -7.35473328788241    7.51936003723226   16.40124157865018
H        -8.83812729229659    8.30374899944078   16.92661453086626

