50
CSD_code = OFIDAI | q = 0 | S = 0 | Stoichiometry = C18H20BN8OReS | MND = 7
Re        4.15417180037573    2.21679902912768    2.48018564839853
S         6.32095305097114    0.13157008308692    4.44983481597095
O         4.42006189784387   -0.51523246269118    1.10872341122484
N         3.96995633862820    4.13850899335193    3.45491402134985
N         2.81105922250596    4.49033480435868    4.01054179964445
N         2.23879256407795    2.69622362948534    1.68153556997124
N         1.32574364817437    3.31163017708670    2.43310937150142
N         2.94822832043145    1.48992020595714    4.12495542460785
N         1.93203065156881    2.23905028983195    4.56676950645036
N         4.91004238000256    3.27168971373698    0.71497885445701
N         5.74756610104164    3.68107671680216   -1.27830830309502
C         5.87191061446132    1.78780135547231    4.06107650099359
C         6.57919769459341    2.22370746346623    2.91411810194755
C         7.37164738823987    1.17398922378797    2.34845416271208
C         7.30578245196583    0.01626301532345    3.03737552097351
C         2.91771111619635    5.70056677426300    4.57845888885591
C         4.20386973021562    6.15397398294586    4.38016892522908
C         4.82343159752360    5.12811393350810    3.66604129514067
C         0.24623274513577    3.59861580418658    1.69195316800729
C         0.47424640825734    3.15141263815134    0.40757416817768
C         1.74748367939018    2.58593729592749    0.45391657314269
C         1.28190508869872    1.59065914910978    5.54471279025449
C         1.89994021937914    0.37549592718090    5.74099471810591
C         2.94263199101835    0.35814170445978    4.81615566898163
C         4.30044763551892    0.51255538470490    1.64014244118290
C         5.60422667830676    2.77846214275270   -0.29035590589876
C         5.10494202284495    4.81361487796249   -0.87505465335162
C         4.58885835766413    4.54656888247606    0.35869701942219
C         6.43529519755163    3.49298015418543   -2.52352933640184
B         1.57937615876968    3.58367259748065    3.92587483398262
H         5.65875541172406    2.40701116818620    4.92444799388067
H         0.63964109601674    4.08645357757903    4.44145881774118
H         6.85994432455082    3.25701420508126    2.75100649953003
H         7.96768419592635    1.30108779995762    1.46048189803385
H         7.77374913002806   -0.92089087464914    2.81006246638631
H         2.08609054309587    6.15449733303094    5.07812364458442
H         4.63416559913797    7.08095464854134    4.70032049035850
H         5.83419857536988    5.09402198199160    3.30594815055638
H        -0.60357644468479    4.09275281831719    2.11735505300735
H        -0.18190007165664    3.21894160601524   -0.43573471542042
H         2.30726173942025    2.10192006504982   -0.32351517919323
H         0.43356091306984    2.02922106037520    6.03007866403195
H         1.63802031723820   -0.38778533092865    6.44398602306062
H         3.66481603005760   -0.41133551920238    4.62819234481295
H         5.99784215735853    1.78203960188484   -0.32476553864792
H         5.06406707171039    5.69563142383724   -1.48022603796911
H         4.01752443331493    5.19678335115340    0.99119731817537
H         6.83394269967682    2.48134301676290   -2.56298487237056
H         7.25758563775546    4.20520901111052   -2.61724081076351
H         5.75078388953677    3.63802556842777   -3.36140721173270

