47
CSD_code = OFIFEQ | q = 0 | S = 0 | Stoichiometry = C18H12Cl4FeN10S2 | MND = 6
Fe       -0.71100857528484    5.65132753220000    4.86061798903161
N         0.81076958601448    4.64914102008934    4.37269682320366
C         1.66386944758555    4.14830019199783    3.73275459621605
S         2.81927319265611    3.45691303978057    2.91060200803476
N        -2.23017293765670    6.63569983679925    5.37651940935617
C        -3.07739006403538    7.45020226343846    5.46123060569144
S        -4.22828347558176    8.51779980432133    5.60931241730219
N        -1.50091925453549    4.05677055555194    5.62676133403859
C        -2.80048967678174    3.78198113751997    5.48277589214412
H        -3.41137947667804    4.50372098446321    4.96416250445937
C        -3.34918314709457    2.61962459224767    6.01747378417338
C        -1.34287359311263    2.00844823343489    6.82353723615791
H        -0.75845159941697    1.27965277049153    7.36562424214289
C        -0.77259602108349    3.15868330200795    6.31007340718250
H         0.28133760499656    3.36284664983332    6.41102016965846
N        -2.63145691163498    1.73129475032394    6.68180263535177
Cl       -5.01437744548571    2.29402391078440    5.81751679683668
N         0.08669761823960    7.26182122404705    4.08859378848081
C         0.02486813569023    8.43865115600001    4.71679267754397
H        -0.51241464492395    8.48539069546658    5.65063245817284
C         0.60685222702502    9.57792586685390    4.16543029188150
C         1.30629261757617    8.39355323440526    2.38907792094147
H         1.83156816078731    8.38265895500115    1.44540769254248
C         0.73269306499610    7.24806397087125    2.91171705567058
H         0.80841456981042    6.30012886659525    2.40392767906512
N         1.24718249525507    9.56186606603876    3.01028507220964
Cl        0.51338490667719   11.06616397790036    4.99534070707034
N        -1.54622811694037    5.24461644501740    3.14515128664664
C        -2.20596330687644    6.17463967913503    2.44977267708013
H        -2.30583322470829    7.15535489092418    2.88661025283998
C        -2.77443852922531    5.87702526961410    1.21347882859139
C        -2.03834024405846    3.75895354829674    1.35405359042578
H        -1.97097081258579    2.78142044279062    0.89973269863793
C        -1.47126965810108    4.02520351635882    2.58734118746156
H        -0.92487514265400    3.27088619939313    3.13037979683265
N        -2.69172361364577    4.67984880877462    0.66117041069395
Cl       -3.61053299408809    7.08824717878318    0.34871844265571
N         0.12399428021369    6.06776247592637    6.56285724596465
C         1.42079282805366    6.37707168021608    6.64732606319587
H         2.00920557088631    6.32386208644199    5.74503772285722
C         1.99635971954038    6.72118972752095    7.86750123795602
C         0.02218293215544    6.45317904903086    8.90669545291488
H        -0.53824845995485    6.49075557064521    9.82925753931702
C        -0.57432571769223    6.10193937428809    7.70945187431613
H        -1.62626940408635    5.87390391864810    7.64574607359908
N         1.30743831750088    6.76486196133615    8.99393585197981
Cl        3.65633877226589    7.11662358839307    7.94439457147726

