47
CSD_code = OFIFIU | q = 0 | S = 0 | Stoichiometry = C18H12Cl4FeN10S2 | MND = 6
Fe        2.80546775712317    4.57307115870429    0.00002651816113
N         4.43530492006862    5.37144554924292    0.55779110558918
C         5.29594896483438    5.97447748941374    1.09143192237358
S         6.46748866040341    6.80282023198158    1.75120183580153
N         3.48311861315966    2.75356243559771    0.69503539117262
C         4.79081402867405    2.54176973387707    0.83498057860842
H         5.45398215406086    3.37468695066185    0.66390989198312
C         5.28202959015754    1.29179193890849    1.21191964065069
C         3.19504264151843    0.46903568091495    1.29490302799949
H         2.55082682477188   -0.37849424290827    1.47793462243331
C         2.68500260923179    1.70198939357922    0.92338099985717
H         1.62758769796323    1.84025784472434    0.76863162900676
N         4.49312308105072    0.25880596763461    1.44377747933428
N         1.98111204819933    5.05955182323526    1.75523140642394
C         1.07485085662920    4.28630171778573    2.35348759729989
H         0.76659612163809    3.38660532263469    1.84890782260212
C         0.51043640528572    4.64810208327927    3.57468787025486
C         1.72057440137920    6.53750235258094    3.60215617813773
H         1.97863880808176    7.45268872223701    4.11438533687528
C         2.29407311832732    6.20084507792518    2.38860590800945
H         3.03017342752810    6.83738057231166    1.92538594026569
N         0.82967343724261    5.76365987824878    4.20403705281681
Cl        6.96384474188652    1.05323777775617    1.38091100564099
Cl       -0.64335633254929    3.62848685135770    4.31516717456214
N         1.17549392143277    3.77501618535094   -0.55759460669653
C         0.31387741523545    3.17199688987757   -1.08970315516194
S        -0.85838570028740    2.34360633308994   -1.74813327709888
N         2.12846019508120    6.39222475275719   -0.69506073518104
C         0.82082657076182    6.60515319859032   -0.83404072442008
H         0.15702173971554    5.77292251581879   -0.66208231255454
C         0.33047484486009    7.85539455041709   -1.21120179145148
C         2.41812268598452    8.67622203108504   -1.29628516474813
H         3.06300329101174    9.52305324315717   -1.48020352241052
C         2.92732416610247    7.44297189480774   -0.92470599853958
H         3.98473908063595    7.30384377753228   -0.77083225798440
N         1.12010358705639    8.88759413206333   -1.44413320747479
N         3.62975706745071    4.08584667524550   -1.75555292465812
C         4.53712790358659    4.85788561329674   -2.35361249741533
H         4.84666286575493    5.75702021899753   -1.84881279331970
C         5.10101779317721    4.49550755244986   -3.57489710845457
C         3.88830157494682    2.60775351887726   -3.60262108298268
H         3.62897508009060    1.69298992123127   -4.11496645944622
C         3.31527090719369    2.94504222117952   -2.38902093640260
H         2.57834247848371    2.30943390320890   -1.92585616850647
N         4.78019540154228    3.38050464679115   -4.20442046831369
Cl       -1.35126018259235    8.09550057756775   -1.37888199134420
Cl        6.25619273611101    5.51363333492071   -4.31526875129433

