44
CSD_code = OFIJAO | q = 0 | S = 0 | Stoichiometry = C11H22F7IN2Pt | MND = 6
Pt        4.70323323085818   11.63333940800454   23.09831252628461
I         5.17265067364015   13.05976169306929   25.39671132279524
F         5.18698215013933   13.18507198478275   20.80641021139326
F         5.07595070771016   14.41343756468078   22.54099968884564
F         2.47490281532003   14.49182520255599   22.57075122464614
F         2.23701943555172   12.86225736422205   21.16835354723426
F         3.34341278956757   14.18055932296472   19.20081842131155
F         4.09549980071280   15.75453530514980   20.45960459703983
F         1.97922529828726   15.49693677458111   20.20867884421049
N         7.03486647951013   11.53974051269926   22.56860273375010
N         5.23639658767095    9.62841769476150   24.15470093836587
C         7.72797255201745   12.81773432151906   22.76957678965477
C         7.42487737716456   11.06040413557823   21.24070158359794
C         7.48368578359792   10.58723380360138   23.59580555608273
C         6.60028940216939    9.34196137660303   23.66809674106364
C         5.26182243610034    9.65920678132849   25.62325133417565
C         4.35653053505285    8.51111240736509   23.78876290612710
C         4.47130467154458   13.33855550530635   21.97378579510561
C         3.07067495674194   13.86066863401514   21.54187629046412
C         3.13469712747346   14.84671514375207   20.33794660795764
C         2.72494073786787   11.56749685820491   23.72903408961108
C         4.16114851048846   10.55883368600528   21.38448968594866
H         8.81517537313848   12.67723445273579   22.72928200877620
H         7.47287810854870   13.25688880373415   23.73073841207177
H         7.44379147788920   13.51701366947164   21.98607108713834
H         8.51852037606046   11.03010652253985   21.15282787746217
H         7.03419173252446   11.72907188466331   20.47767712737005
H         7.04592823514247   10.06084755464563   21.04439284896414
H         7.48045607644302   11.09685998352484   24.56261148305028
H         8.51881608310710   10.27101077637343   23.39302810415561
H         6.52874982366064    8.88780384284526   22.67704253311584
H         7.08191753321746    8.60708347732325   24.32862495880438
H         5.48761186463560    8.66167919373475   26.01813686483891
H         4.29611931084632    9.97432511365798   26.01338202867516
H         6.01344457899639   10.34899070923223   25.99434291255025
H         4.71740124154115    7.57846867887888   24.23929676974060
H         4.31401715573453    8.37472853254303   22.71210801886347
H         3.34897344506932    8.70076951017498   24.15394464987575
H         2.04689094827687   11.14938397878948   22.98915384471476
H         2.38281460120532   12.56573602563507   23.99651384865112
H         2.70977336595908   10.95105846179776   24.62901461957598
H         4.93381904458952    9.82632164823523   21.16282637418776
H         4.05691234987933   11.18995886977063   20.50582663099625
H         3.21701321434642   10.03415282894073   21.51438556075570

