75
CSD_code = OFIKOF | q = 0 | S = 0 | Stoichiometry = C36H34O2P2Pd | MND = 4
Pd        7.66178580738971    0.82108119232051    8.35075050257161
P         8.94739792296713   -1.00021225391648    8.45072891036187
P         6.07885071375777    2.33927051180453    8.70911126907021
O         8.64082296004100    1.55880044066947    6.63479564661337
O        10.09928485521072    1.55170691934378    8.30158480908674
C         6.91188222556942    0.04737461792134   10.04969927730343
C         7.68175925725526   -0.86243486472668   10.78521388406921
C         7.20098068657001   -1.39254619349140   11.98221416775886
C         5.94500494290248   -1.00900863237931   12.42731281876704
H         5.56506188868596   -1.42587260935933   13.34993694360777
C         5.16713107357647   -0.09908290038024   11.72934266751374
C         5.66235526029942    0.43834271974882   10.54067133073319
C         8.01574796802309   -2.36299475122616   12.78759253780569
H         8.16417091141462   -3.29223599153833   12.23650964641607
H         7.51103274339224   -2.59947761860422   13.72115380876586
H         8.99484012790999   -1.94640021596810   13.02032750781957
C         3.81818107889992    0.29566759566853   12.25677053257795
H         3.80991359194036    1.34761319099127   12.54479311933603
H         3.56385855803756   -0.29693058243050   13.13216399008520
H         3.04752462056495    0.14574475226365   11.50151322358053
C         9.05113702123045   -1.23362959150354   10.26664903575484
H         9.35062426211314   -2.25188175651495   10.52963225911854
H         9.79560515347224   -0.52365989626137   10.64804838996219
C        10.57237452304376   -1.37130769622248    7.74257596690967
C        10.62169312421929   -1.53312349960435    6.35949505135898
H         9.70145996667953   -1.47759940875547    5.79005570635790
C        11.83026953248699   -1.74849160251740    5.72659942915754
H        11.86521984465992   -1.87167358714434    4.65377099815339
C        12.99957589187570   -1.79750556258492    6.47006971970718
H        13.94641828546224   -1.96197494824966    5.97656571823671
C        12.95562771587276   -1.62581544943624    7.84363136937635
H        13.86937739738425   -1.65587768271825    8.41971312273505
C        11.74731619402843   -1.40734572318363    8.48228192279545
H        11.72070476020336   -1.25576853544184    9.55106059054675
C         7.96835743869573   -2.44454044339330    7.92225892125075
C         8.42907707629853   -3.74959283462043    8.04667103573697
H         9.41523773316503   -3.93351341403358    8.45239174790649
C         7.62980538034670   -4.80363665729833    7.64422630301364
H         7.98585727302092   -5.81913577295572    7.74172421225860
C         6.37300618495935   -4.55912981523726    7.11296057291798
H         5.75251078721323   -5.38590202340789    6.79931008955919
C         5.91456959626704   -3.25882398653111    6.97564017831651
H         4.93796374328977   -3.07285007206739    6.55280164104245
C         6.71169714645909   -2.20157928863648    7.37672315775000
H         6.37161011384327   -1.16322831676955    7.26563313677560
C         4.85760998382747    1.45251299017771    9.76349834770637
H         4.32335317656887    2.14255089155398   10.42320246523039
H         4.13009095820454    0.95272143438868    9.11141051775607
C         5.12573171660388    3.31367984503219    7.50799182316177
C         3.80646640099342    3.71113386394880    7.69512844254159
H         3.27089935999019    3.42164332606270    8.58842481145787
C         3.17462225256724    4.47222847119214    6.72748632658217
H         2.14958976507241    4.78233856677136    6.87237300289383
C         3.85097353290414    4.83561243172648    5.57420916215978
H         3.35173489709924    5.42987779067577    4.82289978666660
C         5.16163503855789    4.42962220174877    5.37849916194850
H         5.68265162405591    4.70339694010052    4.47291998471128
C         5.79762708204275    3.66767214336256    6.34066907204138
H         6.81477556903354    3.32202960062601    6.19757049710711
C         6.74381327349251    3.58781222555464    9.85549214970356
C         8.04005158764350    3.38753400258153   10.32496032926306
H         8.62278471213817    2.53253137188603    9.96672886149978
C         8.59053887983005    4.28379437835597   11.22419491774128
H         9.59600456031115    4.13188538240878   11.58767271821972
C         7.85676996123794    5.37903796595666   11.65044146922994
H         8.28881870594701    6.07999704978844   12.34978971698254
C         6.57111579269663    5.58453086854305   11.17498626340064
H         6.00498828082223    6.44463025275334   11.50281265525496
C         6.01224555926393    4.69229095382042   10.27839221101674
H         5.01356692387543    4.85725413877117    9.89727286927024
C         9.79664394172579    1.72694198261416    7.10675067172548
C        10.88239708009652    2.16754677297238    6.12915474002752
H        11.75009737000580    1.52273217954645    6.24719886430862
H        11.17793502429853    3.18814868959249    6.36264153157225
H        10.51248364843358    2.11799352588087    5.10894975823157

