83
CSD_code = OFILUK | q = 0 | S = 0 | Stoichiometry = C28H46B2Cl2N4Ti | MND = 4
Ti        3.18194669292493   12.21901521252824    2.29390049810295
Cl        2.57920462575604   10.33045533586708    1.34453351812891
Cl        3.14182433810180   13.70464527292285    0.70596588074251
N         2.38737536724433   12.37555138794435    3.95000669644085
N         2.44067253096589   10.27308798273488    5.28892087829954
N         5.88530446529893   11.12250663935872    5.01622145888507
N         4.89111559424722   11.86094565415372    2.84487701575579
B         3.11374342763547   11.28638170577503    4.57643048783021
B         4.77426188761734   11.35287555855950    4.17578950842181
C         1.03847840923342   10.26810938396113    5.64880293413832
C         3.05942855758864    9.00287962774943    5.60206762930086
C         5.75426325368310   10.85090364757728    6.43055419985308
C         7.27425833243337   11.11217956003245    4.61261030914181
C         5.92686545011723   12.37958642890953    2.07532900976823
C         6.59415553875664   11.57401725564979    1.13095374142037
C         7.62811388301624   12.11798517935447    0.38493107504209
C         8.00834307320828   13.43621189579720    0.55319836994631
C         7.32106432638877   14.24216208831652    1.44322685555199
C         6.26966039244676   13.74442450983029    2.19630662721822
C         1.29708086214587   13.14587985877828    4.32297375239913
C         0.04649572493344   13.02442381113349    3.67188635439783
C        -0.98541991752976   13.88427177587585    4.01231433588147
C        -0.83196588623337   14.82606386284730    5.01189074049660
C         0.36992793872146   14.91056908066696    5.69037406913678
C         1.44165815017598   14.09848124744313    5.35904903802954
C         7.26472041656157    9.13950467911200    0.97429947180797
C         6.12590227061981   10.15646582975850    0.89452616297923
C         5.43160005096158   10.09771981218564   -0.47097754650603
C         6.27118939570357   14.79043063628234    4.45769377755026
C         5.49768631973890   14.63795442898231    3.14464254673442
C         5.19350286182057   16.00787653160200    2.53417512968485
C        -0.16582818425123   12.51792915203166    1.22669362420921
C        -0.17492791034194   11.93610767585720    2.64482221928325
C        -1.47978513890481   11.17135068152302    2.88746145997232
C         3.13584014536835   15.64203580938346    6.43337636432975
C         2.74902573665429   14.19801093329541    6.11355059894114
C         2.66337355798254   13.37560681232148    7.40342154804553
H         0.60988085419388   11.25772541765367    5.51820261977682
H         0.92349097146995    9.97274113769823    6.69758405120467
H         0.48233542918584    9.55291106126676    5.03283325143059
H         4.08167866981834    8.98916650037541    5.23677146057232
H         2.50674969652941    8.19162254210009    5.11733646781309
H         3.05343395134291    8.81807769063091    6.68234235895606
H         4.71311260801725   10.92140271510228    6.72747585152397
H         6.33387540342354   11.57997444115192    7.00800317341052
H         6.13559853986873    9.85338619821167    6.67710115540444
H         7.36659958586853   11.36196786115425    3.56061555130299
H         7.70841848650655   10.11958118650312    4.78101118812945
H         7.85594229105476   11.83393620596056    5.19716801361762
H         8.14242592513842   11.50575998271951   -0.34037762403568
H         8.82513313233462   13.84275063124973   -0.02429253393687
H         7.60800306786639   15.27760443715124    1.54359751054106
H        -1.93201500258196   13.80756226868329    3.49948490769166
H        -1.64947530833244   15.48179594480493    5.27136761092662
H         0.47119895712105   15.63009300268315    6.48805124843443
H         7.77104758811539    9.20637657694666    1.93497065402451
H         7.99634654773978    9.30633739619817    0.18748691719687
H         6.86929466380389    8.13250370854359    0.86088023604413
H         5.38521745055764    9.90422398198076    1.66882221616118
H         4.64730809500495   10.85607541170432   -0.52518952956943
H         4.97733379640040    9.12133877318498   -0.62399462858221
H         6.14489299235994   10.28292636107512   -1.27172701719624
H         6.34486083843519   13.83176896765873    4.96391791075147
H         5.76766028749159   15.49615540292736    5.11345698422210
H         7.27568120591310   15.15963767525396    4.25844408998274
H         4.52280963490495   14.15189214898475    3.35898945681491
H         4.73134825571675   15.89014061265864    1.55617852362304
H         6.09583438265440   16.60488032323282    2.42653109453561
H         4.50374312671949   16.55197429058169    3.17688379264339
H         0.73187540660485   13.12088303539053    1.06132430180483
H        -1.03547231256460   13.15537793599126    1.07284923313663
H        -0.18761428996931   11.71410037335473    0.49165620943060
H         0.65087663281230   11.21444891240104    2.73333762410700
H        -1.55252397713032   10.84758892974785    3.92341124255847
H        -1.51168209118161   10.29352341798250    2.24595868130538
H        -2.34710574814329   11.78587118125509    2.65831775291992
H         3.09383633132895   16.25735983044045    5.53746797193395
H         4.14706924222550   15.67295197743069    6.83352855378650
H         2.47320450825179   16.07273246291625    7.17969833343302
H         3.53630862012084   13.76174868786746    5.48559387741248
H         3.60289415749762   13.43114833570235    7.94948039236454
H         2.45674407803966   12.33435963257568    7.17155128297549
H         1.86746677667968   13.75460748481649    8.04169723805550

