95
CSD_code = OFIMIB | q = 0 | S = 0 | Stoichiometry = C49H39Br2O2P2Re | MND = 6
Re        5.11424639810829    9.62772410486951    7.86715389729537
Br        5.45434938246307   11.02435359651789    5.83660717540234
Br        4.94057598101630   11.60180536509761    9.36656557780441
P         2.71045078584807    9.49982147738706    7.71710443164015
P         7.51859798628053    9.35433624479515    8.02086693525722
O         5.07145246204443    7.86665402339018    6.75955363090752
O         5.10044651401263    8.35478382047460    9.47832246632997
C         5.19858952486998    7.10789226199714    9.56855198671845
C         4.91841871102199    6.19919394738520    8.48636349107782
C         4.85547494380986    6.65842319509592    7.12966259959597
C         4.57005967377765    5.70605762051105    6.11935358383259
H         4.54167643612092    6.06673466876040    5.10196883255579
C         4.32383867038307    4.39649614309493    6.42161683452501
H         4.09952011852204    3.69582383733153    5.63046460002101
C         4.33841634563053    3.96233380991385    7.75059824421996
H         4.11042495142881    2.93368558443574    7.98498581667143
C         4.63102811422837    4.84940474802436    8.75322819535280
H         4.60535031201547    4.52382046579772    9.78288095008944
C         5.64552325015689    6.60538914683477   10.88692105965114
C         5.24168997993275    7.28313997858914   12.03555221727205
H         4.55282490286475    8.10896882485387   11.94042643152143
C         5.70864654302910    6.89707197380646   13.27624775914368
H         5.37755718665319    7.42045734342991   14.16102812633929
C         6.60640087528669    5.84775672870171   13.38429457139455
H         6.97793979719198    5.54899736569187   14.35320152757160
C         7.03455780477302    5.18721311132802   12.24433507154899
H         7.74750792722654    4.37958302724359   12.32334230745485
C         6.55784772611338    5.55809184198906   11.00123564106823
H         6.90895571788754    5.04915545730993   10.11548447218497
C         1.94776814024914    8.78173230688611    6.22789293963868
C         0.59990672192508    8.43092034826848    6.26346814997970
H         0.03023926752790    8.57207702601880    7.17199040752867
C        -0.00540686784535    7.90143216225466    5.14110212562082
H        -1.04958455613837    7.62585954784132    5.17370410957111
C         0.72423462412167    7.72623866002149    3.97470443107642
H         0.24739242015914    7.30987368423218    3.09946680397716
C         2.05822940851867    8.09042133005402    3.93168283166306
H         2.62582129206139    7.96572251370080    3.02139751616171
C         2.67144610408056    8.62176569659443    5.05360460131576
H         3.71297526744178    8.90434834314945    5.01336486155326
C         2.16971929603525    8.41018304864413    9.06391116015677
C         1.90546613268067    7.06075558561532    8.85747853416610
H         1.91450241880470    6.65322546093592    7.85487909070406
C         1.63840676037933    6.23634514377285    9.93666642211912
H         1.43736704637561    5.18827242427916    9.76892882301533
C         1.63896456490213    6.74922768381184   11.22261997506293
H         1.43198113726751    6.10227592459259   12.06238834806859
C         1.91569583902723    8.09154291560875   11.43418999682796
H         1.92158001633625    8.49138172039781   12.43805351791873
C         2.19404178327259    8.91850456071301   10.36266298756102
H         2.43850362779083    9.96148503873877   10.52298759499404
C         1.69493002723356   10.99844443166426    7.91057863934202
C         0.50924828582327   11.00982753562273    8.63714761155346
H         0.17927404924797   10.12401083252455    9.16251283243670
C        -0.24623114189805   12.16608286869899    8.70161956077486
H        -1.16401672996508   12.17244431530154    9.27178564122409
C         0.17088696377284   13.31095186530988    8.04298006213969
H        -0.42173172016421   14.21176914156511    8.10217080761779
C         1.34759207493776   13.29992134805357    7.31322780016376
H         1.67918981658840   14.18945185744193    6.80013068943564
C         2.10813583362807   12.14785940545099    7.24335695124496
H         3.02806196612596   12.14471631324789    6.67567807706420
C         8.29511974024614    9.05634062896815    9.64290312349139
C         9.59231363713706    8.54971657811218    9.68775711584740
H        10.12396363125144    8.35099133250944    8.76680821445862
C        10.19390299508805    8.29842494124184   10.90486703121109
H        11.19701368886708    7.89806197040260   10.93526489074802
C         9.51271734640906    8.55985681089292   12.08445570757543
H         9.98388225778983    8.35461440092036   13.03443451266375
C         8.23729604664292    9.09308792692306   12.04332507992988
H         7.71031818643796    9.31343307739199   12.95941110574743
C         7.62858927819235    9.34643424511543   10.82594463557943
H         6.63494736798103    9.76888357425306   10.80232153243182
C         8.63826598129643   10.61888841048568    7.34521054330520
C         8.37075017536579   11.94786966442732    7.66079139789970
H         7.50069935168128   12.20010688965902    8.25145396061800
C         9.21011441549494   12.94793751093872    7.20811556508057
H         8.99227481797250   13.97724637806450    7.44826074396795
C        10.31973618865289   12.62807703168164    6.44360481244726
H        10.97257418598718   13.40932838152322    6.08358401453030
C        10.59129727713973   11.30556268981624    6.13479056978060
H        11.45574968866144   11.05479349373089    5.53712246679060
C         9.75638229971856   10.29886802715287    6.58380267975069
H         9.96990426225758    9.26944218767818    6.33013028923981
C         7.89075642162174    7.85227600052365    7.07361566326450
C         7.77629735479402    7.91488082766296    5.68477183515297
H         7.59595897511072    8.86869322418796    5.20520106117413
C         7.87416612049965    6.76154495457884    4.93099729644019
H         7.78485454514542    6.81488333349617    3.85590830767037
C         8.06787026737567    5.53784124198605    5.55315408442725
H         8.13132583818382    4.63515777594976    4.96359246991200
C         8.16709617731360    5.46981026708233    6.93219842985862
H         8.30499131707248    4.51486800039259    7.41908300560756
C         8.07281287437953    6.62130058665187    7.69363873525925
H         8.13859839523205    6.56703687980748    8.77242678199487

