34
CSD_code = OFINIC | q = 0 | S = 0 | Stoichiometry = C15H11N2O5Re | MND = 6
Re        4.32056998790326    2.91373147296994    3.08615570163433
O         5.04510807673057    4.30291178329139    1.63819345327237
O         4.92275112389969    6.58193421229272    1.23194987500892
O         7.09392505181474    1.61919652899861    3.50625963527580
O         2.96149514199073    1.46172180234197    5.45501517093956
O         3.43211844687480    0.86665047276936    0.94971449469899
N         2.60092744624029    4.21816452035753    2.66667272109485
N         4.89315569669214    4.69000001138147    4.25994789381343
C         4.54645646746925    5.46905118473544    2.03211574050908
C         5.00206484406994    6.28781848447794   -0.14814643598110
H         5.44621483558588    7.16469161543226   -0.61399994350025
H         4.00644010488328    6.10218836663845   -0.56920931977898
H         5.62920142140974    5.40953838319555   -0.31483304633865
C         3.00515321351782    5.38121712584680    2.16015260669413
C         2.12857149355482    6.39302621945188    1.80363625754033
H         2.52099190718858    7.31707286700664    1.40903173655064
C         0.77252049348269    6.16974463603242    1.95731178791468
H         0.05608355339650    6.92660852907165    1.67493250121481
C         0.35037503221864    4.95474119395012    2.48161672934158
H        -0.69776614001280    4.74265785696650    2.61920038058873
C         1.29710057526644    4.00964167306741    2.82903843027308
H         1.01365406595390    3.05215229873064    3.24610222186707
C         4.94290936745924    5.77236680906130    3.48551030821778
C         5.31697043750979    7.02033477854805    3.95583882146014
H         5.34390936973116    7.85127503471003    3.27070506215029
C         5.66898363363954    7.13766035248245    5.28802108831280
H         5.98314298674483    8.08910462315804    5.69036189295089
C         5.61374922791684    6.01039238791506    6.09776053578943
H         5.87816797687087    6.06142307901525    7.14181448640129
C         5.21856304042566    4.80735572822160    5.54422889735654
H         5.16245334332314    3.90347001040744    6.13662538147624
C         6.04203769209862    2.04688681692958    3.36602149100063
C         3.48867238617494    1.95991835645293    4.55922734704165
C         3.76632769797407    1.58025078409257    1.78022609520824

