79
CSD_code = OFITOP | q = 0 | S = 0 | Stoichiometry = C33H41Cl2NRuS | MND = 5
Ru        0.08760715420587    5.57438955278263   15.16278034549126
Cl       -0.77524156663019    7.40480572614531   16.25232487263820
Cl       -0.10622999215982    3.71640905995162   13.82849977992913
S        -1.25266075453846    4.33701784253399   16.89150749147269
N         1.96364924113963    7.60595105327256   13.88314299344909
C         3.40916376145055    8.04608083587001   15.84255178528753
C         3.16208638128178    7.37900000034618   14.63397422396321
C         1.92078038444456    8.72549335227819   12.90147363409800
C         0.92796304872642    6.80884345256133   13.86601760707634
C         2.35587275591283    8.81630486854524   16.60338146050344
H         1.44270901375204    8.86148765430804   16.00816032351125
C         2.55936093340231    3.79837649505874   18.09425265243713
H         3.53646003213304    4.16151808432944   17.80933782450189
C         2.41674930069522    2.92932512019835   19.15265054409389
H         3.28809386449658    2.60761149930517   19.70383993331002
C         4.10333939795440    6.47002846090716   14.11877407951922
C         0.50107105631973    8.60236029425830   12.32631519853298
H         0.48981016740474    8.75859037389940   11.24917787141750
H        -0.14936870715661    9.34558967014823   12.78837105564844
C         1.44259471320388    4.22803134767370   17.35017493167944
C         3.00742207385994    8.58521527432868   11.83453610975936
H         3.98790038752210    8.54031215420467   12.30276354322435
H         2.97965562253999    9.45465955088343   11.18177694081923
H         2.86956082313161    7.69989878974640   11.22293950126935
C        -1.95175355313917    2.82682466275015   16.25306369878989
C         2.01097258477065    8.04497009265295   17.88248564335389
H         1.63315601962623    7.05524421159015   17.63085463616694
H         1.23469389528588    8.57482331126412   18.42808943506462
H         2.88016955052580    7.93361784106946   18.52655395257197
C         5.32673452065602    6.33890204239509   14.76326313542227
H         6.05811240890008    5.64734079604786   14.37596625507619
C         2.11835532240341   10.07066498272422   13.59326066961478
H         1.37593167568101   10.22632512971194   14.36963201443518
H         2.01588050372095   10.86530063418831   12.85742483254106
H         3.11241579088291   10.13037962364552   14.02790011078279
C         4.93717904836453    5.57714310905577   11.90259031237117
H         5.22192013373499    6.59330652888837   11.63974235006251
H         4.60520007462920    5.06829663036302   11.00020350798579
H         5.81979887054387    5.05946546000098   12.26848612654921
C         4.65627676505282    7.89337847477234   16.43966194428886
H         4.86803064962324    8.41762743294069   17.35809573278032
C         0.02500089564021    7.19008973804730   12.70676681757548
C         1.58294327947346    5.08387943863767   16.22300853825512
H         2.61423710483603    5.38301213387779   16.02808201259802
C         0.18165958598390    3.74482100371928   17.75509445104784
C         1.15987384784840    2.46147358982579   19.51903107671928
H         1.05334582773861    1.77993612689149   20.34890479201946
C         5.62153507807133    7.07345745989141   15.89410115236368
H         6.58703143544305    6.97801407309933   16.36866413976846
C        -3.13883867254713    0.56967875776803   15.19867961173955
H        -3.60015576623099   -0.31357717633874   14.78300997436474
C        -1.78857817963267    0.56547639590512   15.50713997161048
H        -1.19314834869258   -0.31704526512066   15.32687390375672
C        -1.18527573448178    1.69355968976073   16.03241719821096
H        -0.12727179903511    1.69680802370689   16.25016274153807
C         0.03814977861525    2.88134279973635   18.82378594420392
H        -0.94598852962329    2.53420305742670   19.10289475304499
C         0.24589274937468    6.20752723672378   11.54472949443307
H         0.08045143552870    5.18436451232192   11.87513453620515
H         1.25329896968592    6.27817577900289   11.14455347426987
H        -0.45524722027594    6.43329186885149   10.74324748928481
C         3.81536821781548    5.56172242933474   12.94539234200100
H         2.88857594214535    5.87562604186619   12.46785573381146
C         2.79902092651661   10.23356816858280   16.97763436677009
H         3.58065499190886   10.20901626951431   17.73301448066413
H         1.95426380364302   10.78034300819193   17.38954997658368
H         3.17633469731954   10.78240616005638   16.11921347200509
C        -1.45461586572145    7.13933271002913   13.10319469824825
H        -1.70333662915942    6.14725631235833   13.51281329948377
H        -2.08433459636691    7.30530413087046   12.23009486880569
H        -1.68537407231837    7.89956565021331   13.84878974953994
C        -3.89490489773164    1.70990741735027   15.41500955057514
H        -4.94662374218060    1.71995525384212   15.17028846961337
C        -3.30451854092563    2.84194895062435   15.94553236933262
H        -3.88095708187970    3.73998930889211   16.11432176832869
C         3.58417780123089    4.13215992513289   13.44600965022486
H         4.41527089235057    3.79056368015436   14.05851194058511
H         3.47669464650373    3.45976271448877   12.59835515805841
H         2.66806441476114    4.08597114712530   14.03303697089445

