66
CSD_code = OFITIJ | q = 0 | S = 0 | Stoichiometry = C26H32Cl2F3NRuS | MND = 5
Ru        0.16365638080648    3.42697260625182    0.70076571056449
S         0.62196532544687    4.58556233168154    2.83335833788008
Cl       -0.31608151460986    2.15492914372268   -1.16005233641313
Cl       -1.94053861437911    4.16824174170642    0.70688782439718
F        -1.79044502906254    3.93177590154311    3.71487605274579
F        -1.57889929450733    6.00378316598021    3.11336295690710
F        -0.73230478021746    5.31899485328767    4.95441762092545
N         3.05428704802929    3.20751131598708   -0.18490592210340
C         0.96054523766276    3.08991586258656    3.76316868720510
C         3.40566125570287    2.14488871625474    0.70752582597931
C         4.04818057576808    3.92776845401696    2.42400236927087
H         3.31426869673064    4.10847354988824    3.21377821922814
H         3.81041394858621    4.61066265131316    1.60975525116814
C         0.47695723135002    1.85403491037291    1.69532762428340
H         0.26071428787425    0.86634019860651    1.28009724409103
C         1.34347532109878    3.16011760160563    5.08661817581479
H         1.44713618169549    4.11687009125374    5.57540029227478
C         0.82201861105859    1.87259005476111    3.07195671652306
C         1.06041777304356    0.69978841376378    3.81208658572609
H         0.95119266314899   -0.25271766072464    3.31623070938140
C         1.91266420889605    3.83068836779697   -0.08719852755385
C         3.90023660889959    2.49752736968463    1.97285807709735
C         3.99680900076052    3.78660931591576   -1.17678319498469
C         1.43410467481525    0.76052440401893    5.13624400365391
H         1.61297116497468   -0.15320378982648    5.68316605965871
C         2.55585231858851    0.35984158072409   -0.91234087189874
H         2.23147548960474    1.21719764050668   -1.49517294529297
H         1.65159536783453   -0.20015821270512   -0.66594430626081
C         3.19080421438035    0.80476497942478    0.37385563089216
C         1.94496717760488    5.10493214078795   -0.91066905257658
C         1.58146117255646    1.98357485457879    5.77949631492694
H         1.87593990323373    2.02378626064364    6.81629584184730
C         4.22097364053008    1.48910914361341    2.87013877648902
H         4.58060718615686    1.75046690367886    3.85283131467032
C        -0.97714265363570    4.97442669320753    3.68269288370578
C         5.43889599141393    4.24911294296554    2.97475142167867
H         5.61852380395958    3.72887669576548    3.91088065478404
H         5.52477218895362    5.31697613826872    3.16273397636504
H         6.21609953141548    3.95553171841391    2.27321654514830
C         3.53477574633298   -0.17189957817770    1.30296627659835
H         3.36197104313362   -1.20834731838546    1.05631516088670
C         3.47063959663701   -0.54459553105916   -1.74026348088422
H         4.43984150554608   -0.08046951225403   -1.91263327315332
H         3.01012504668265   -0.75105739028906   -2.70261178827829
H         3.64454608638230   -1.49178847700606   -1.23618114240234
C         4.05567845278247    0.15963763577302    2.53559422969165
H         4.30750061589998   -0.61261171223891    3.24668475191386
C         3.94569748801573    2.98134453737072   -2.47669008652801
H         2.92346252859588    2.86339264189157   -2.82441544435452
H         4.38509979922053    1.99977690380019   -2.33629513836121
H         4.51413050777253    3.50156916736835   -3.24436456456322
C         5.43213846313426    3.80326131220011   -0.66519291719893
H         6.09218026237713    4.12630599367045   -1.46664565222648
H         5.73475194446287    2.80729823862129   -0.34938877963222
H         5.55291899381119    4.48718044767625    0.16828968840642
C         0.94852980455993    5.03861806269281   -2.07525725699691
H        -0.07014402864310    4.92953178919430   -1.69364418075457
H         1.15142821281168    4.19221121858867   -2.72662116849802
H         1.00055113426501    5.95642760568502   -2.65810014607890
C         1.56620943188642    6.29542313519571   -0.01588523253669
H         1.66264735935318    7.22254078508330   -0.57765025535903
H         2.20863324778806    6.35082228715386    0.86274166374833
H         0.52839888232314    6.20704637024921    0.31732441199315
C         3.40992250518375    5.19203295275923   -1.38613877405829
H         3.47480374231862    5.49862815845619   -2.42767093274631
H         3.95432933119665    5.92113122465963   -0.78357651682804

