41
CSD_code = OFOCOD | q = 0 | S = 0 | Stoichiometry = C12H16NiO4S8 | MND = 4
Ni       -0.00108165524376    0.00045736386815    0.00111321613055
S        -1.04371155483584   -1.88076228505296   -0.04860159041256
S        -1.14386858752052    0.71261109858230   -1.66483741584517
S        -3.23169089359786   -3.12026064649590   -1.44968054302739
S        -3.26758121454823   -0.25007365935573   -3.41753617730621
O        -4.90226085045179   -3.85237298820084   -3.40868350782936
O        -2.35898243957967   -2.66968869225921   -4.15186251291709
C        -2.19076815351386   -1.72472904027444   -1.31102015920888
C        -2.21490653050029   -0.56315260603554   -2.04717170905325
C        -4.35751184127142   -2.70683060056247   -2.88120535868220
H        -5.12901918804302   -2.02992857769627   -2.48171776070367
C        -5.81998623127581   -4.51259962483664   -2.55887071049535
H        -6.20740884540082   -5.35114120636443   -3.13208271749636
H        -6.63872847677643   -3.84252930113862   -2.27547523564263
H        -5.32386109682337   -4.87893976521478   -1.65568114447432
C        -3.54067586136187   -2.00552177639968   -3.95624310632495
H        -4.14129308834453   -1.91802422821656   -4.87297649504108
C        -1.64255620344826   -2.28525459703086   -5.30632318378574
H        -0.74864376378929   -2.90353388085234   -5.32289721465890
H        -1.36091595576780   -1.22844850913550   -5.25656490829991
H        -2.23694287867834   -2.45988395843162   -6.20859436677756
S         1.04419952562965    1.88024185369434    0.04825888383890
S         1.14453493287806   -0.71305409283219    1.66456590340081
S         3.23163435555046    3.12025584470063    1.44967937335489
S         3.26780853762516    0.25011339344310    3.41758717648684
O         4.90198057758921    3.85275704252559    3.40872477560040
O         2.35895367614891    2.66956119726868    4.15193936676436
C         2.19143303769155    1.72425302736313    1.31052359506200
C         2.21561812683268    0.56273243650765    2.04674586854903
C         4.35745050970570    2.70709627849196    2.88126897678146
H         5.12908799546197    2.03035509267744    2.48176935923905
C         5.81961269687088    4.51310280552421    2.55889999640011
H         6.20662543905888    5.35192869353186    3.13197027094032
H         6.63865070837975    3.84326392614561    2.27581021315877
H         5.32351930754666    4.87903733265181    1.65552859685164
C         3.54075075851502    2.00559691339366    3.95628813175357
H         4.14139966733337    1.91822341370911    4.87301602069018
C         1.64256594217582    2.28482067861635    5.30632381591663
H         0.74865250114858    2.90309043156601    5.32309741442305
H         1.36093362278136    1.22802493081558    5.25629283622054
H         2.23698339184912    2.45920628130931    6.20862202642070

