35
CSD_code = OFODUI | q = 0 | S = 0 | Stoichiometry = C15H13MoN3O3 | MND = 6
Mo        6.93739609099654   -0.13322157292708   -0.03654091925797
N         9.00693558642204   -0.33157546711765   -0.26510317114669
N         7.67689164010014    1.32695579297014    1.45369218584018
H         7.13083905027132    1.31702508211376    2.31089876386758
N         7.40089967832604    1.49832867184468   -1.26208677417114
O         3.95930765353634    0.60452442848387    0.28401689544274
O         6.13023356187646   -2.05967166278124   -2.29094477340908
O         6.69176056105421   -2.49295942732974    1.93459935526151
C         9.74747767511496    0.45253234450174    0.52782332482676
C        11.07527413956841    0.74652777492596    0.26131185530422
H        11.62942147958959    1.39251893490384    0.92626266592510
C        11.67712208993834    0.19799815533674   -0.86086913468126
H        12.70885404208016    0.41057641018846   -1.09329893977613
C        10.91550690644451   -0.63667586597646   -1.66633070843165
H        11.33938381622147   -1.09910091455346   -2.54341168845922
C         9.59443636654661   -0.86963088103849   -1.33164522279504
H         8.97230929508096   -1.51893588594916   -1.93259254794745
C         9.04769611838243    0.94964190052961    1.76240510532490
H         9.01287545066402    0.11702567319705    2.47811239621228
H         9.61294525594490    1.77984098765932    2.21941282114363
C         7.56731912434173    2.64128614595886    0.83901677700213
H         8.20467250984426    3.38842150082616    1.34204404708315
H         6.52052959222505    2.96377374064111    0.92245595528201
C         7.89906972620172    2.56540472631305   -0.62553948446427
C         8.62572616279836    3.55197605006510   -1.27286752729322
H         9.01704760649303    4.38930683792768   -0.71403487524029
C         8.83666185375874    3.44946413541105   -2.63946180159813
H         9.40032997530830    4.20163044475788   -3.16882891754547
C         8.29406313920621    2.35784423145973   -3.30239594020130
H         8.41754724050018    2.23801009298251   -4.36692540470360
C         7.58983922516386    1.41454705936509   -2.57722018931948
H         7.14842860469655    0.55385183998477   -3.06111775475025
C         5.06328856968199    0.31717311974123    0.16667863942597
C         6.43339339000377   -1.33970757867991   -1.44936176114632
C         6.76511682161602   -1.61360682573592    1.20214674839389

