97
CSD_code = OFOHUO | q = 0 | S = 0 | Stoichiometry = C49H41N3OP2Ru | MND = 6
Ru        8.23678958898123    4.57189593494178    3.61731637507072
H         9.09727307580951    4.48983184286360    2.33224381672566
P         6.66080750351189    3.16691469340483    2.69722055070275
P         9.57520510736344    6.20156812397569    4.53166717650587
O         9.72976324116633    2.43708284455651    5.08972542540516
N         6.78097880394891    5.13083379239869    4.96031887992345
N         6.27586377504799    6.08314013257757    4.22843026467988
N         6.96959786325382    6.11154002368346    3.12407881584787
C         6.19794763932390    4.85038605962086    6.17302267329530
C         4.93867976081540    5.34799717096147    6.52359582280451
H         4.40996870948251    5.97484624802563    5.82071166668734
C         4.39016094606387    5.03335859231702    7.74834626673256
H         3.41486398362017    5.41823576207014    8.01076139493284
C         5.07860119972165    4.22756478794195    8.64163158440882
H         4.64240501209783    3.98543896356147    9.59941426959743
C         6.32775565487006    3.73420077242899    8.30031880020588
H         6.87082308631633    3.10977772949593    8.99489448547027
C         6.88478794735931    4.03584090616324    7.07627308167415
H         7.86251561114076    3.66193897443308    6.80589622508156
C         6.66573242901022    7.06851449705582    2.18246056982812
C         5.88893699203613    8.19039660683154    2.48707532141252
H         5.51322053965046    8.31157960162845    3.49260408143706
C         5.61616212959795    9.12396064411232    1.50949639196520
H         5.01873393186388    9.99147969807530    1.75193712751917
C         6.10271532076332    8.95778730600474    0.22252395354625
H         5.88366412462638    9.69306142778535   -0.53757067741862
C         6.87061432093807    7.84525308072449   -0.08471543460271
H         7.24640434902471    7.70882597509126   -1.08851362426754
C         7.15705063509655    6.90840389410284    0.88419546445744
H         7.74699158338123    6.03052553923857    0.65820309651329
C         5.64619081530274    3.92513027586328    1.38739156651205
C         4.65768366860231    4.85473262927719    1.70860201799468
H         4.42711348281168    5.06520233803328    2.74564014413807
C         3.98004882349371    5.52515692493606    0.70768495064360
H         3.21698561196497    6.24486754601279    0.96604163472819
C         4.29068517610491    5.28850178366867   -0.62094181963675
H         3.76479637741809    5.81943046072257   -1.40050800339940
C         5.28405550172668    4.38024233622503   -0.94673515312925
H         5.53585933896623    4.20267552707157   -1.98223474370035
C         5.96376033566378    3.70475496772973    0.05034728304717
H         6.75147174968432    3.00758430762538   -0.20164253914156
C         7.17146165603113    1.59942289874005    1.91688965261447
C         8.51841472842150    1.29483605115614    1.77580413227517
H         9.25525008572050    2.01418896242739    2.11295634974337
C         8.90084785862083    0.09349388155837    1.20367617339916
H         9.94956071588854   -0.14127434211922    1.09538901680365
C         7.94058425085211   -0.80570130913362    0.77227200210652
H         8.23864122252500   -1.74424552627342    0.32833182781095
C         6.59411838443320   -0.50352310920472    0.91003098617432
H         5.84533057987517   -1.20587074636512    0.57339954935633
C         6.20757173840461    0.69322029856416    1.48161601047515
H         5.15819200232024    0.93116552168604    1.59350413845259
C         5.43597764963738    2.47632262888869    3.87084460090305
C         4.05612862724506    2.48264972118620    3.70790390585820
H         3.60863448431308    2.90798071567733    2.82082467667670
C         3.24338089873070    1.93480104665732    4.68581760938386
H         2.17053019751057    1.95334172700150    4.55726342660447
C         3.79509623977522    1.36472797779340    5.81981943064668
H         3.15380381765393    0.94753941119301    6.58197870230537
C         5.17156480105992    1.32122201816247    5.96951534903858
H         5.60880313579900    0.86330401764606    6.84417129127021
C         5.98491594667273    1.87425488702406    5.00066084161616
H         7.06247167753353    1.84418747814537    5.10540390075499
C         9.12820623541948    6.54053593330285    6.26605255764376
C         9.77486302039120    5.84753731484158    7.28594650115043
H        10.61458687438415    5.20822807954909    7.04524433879969
C         9.34201786634549    5.96861233230729    8.59345540489871
H         9.85143273073778    5.42998486529285    9.37923459320965
C         8.25052467910299    6.76640870519448    8.89413633859847
H         7.90764402106987    6.85301768750878    9.91445148439900
C         7.58835391958098    7.44144872811009    7.88222960450068
H         6.72553162800592    8.04975207541060    8.11163888612333
C         8.01819791997077    7.32561341199073    6.57363219269297
H         7.48022054695798    7.83376105052892    5.78268517258312
C        11.37975856731479    5.96478521576195    4.64804284308651
C        11.98713144548850    4.90336311985791    3.99133203971454
H        11.36969190490572    4.21046111071958    3.43262659018304
C        13.36097466474015    4.74475023647117    4.05475318475483
H        13.83071940813887    3.91464891408865    3.54794292772250
C        14.13117300547179    5.64825386243990    4.76683467492131
H        15.20292342139415    5.52365145006701    4.81793661012142
C        13.52856294950499    6.71721954550867    5.41292653414266
H        14.13079670132656    7.42511471931633    5.96387541071449
C        12.15821337409152    6.87983595188428    5.35234355147812
H        11.68471126419880    7.71249126046389    5.85499036482717
C         9.58867085657785    7.84401791001722    3.73158277234944
C         9.52167506594202    9.06186513485445    4.39791230943596
H         9.44216498355426    9.09695349952246    5.47535923089748
C         9.55455116990331   10.24242421561091    3.67619559972906
H         9.49058737676770   11.18699790268093    4.19732212587027
C         9.66924085471905   10.21893116209354    2.29665521719350
H         9.68474600791575   11.14488306057717    1.74093104537962
C         9.77352420262688    9.00788138650780    1.63248766746109
H         9.87704986049393    8.98559508440108    0.55787403885279
C         9.73597699600722    7.82673248442235    2.34722859150531
H         9.81693736179728    6.86990883128999    1.84727188965087
C         9.16909266871347    3.23762882384038    4.46978494682620

