41
CSD_code = OFOQOQ | q = 0 | S = 0 | Stoichiometry = C16H16Cl5NOPtS | MND = 4
Pt        5.25603041907218   -0.05804882685121    9.84269684091176
S         3.28971514720525    1.02863733679495    9.77305619585028
Cl        5.22085509701491   -0.02020408916319   12.14845405387115
Cl        5.32344492798422   -0.03870333819690    7.54041295060657
Cl        9.25363852299621   -1.53726447867460   12.13062040262883
Cl        9.20345678136807   -0.77809475725192    6.80387345684433
Cl        1.70919927504041   -3.95934740274941    7.44504777177025
N         6.95310335877699   -1.05473564475131    9.87912838016269
C        10.00950895000169   -1.35986365751996    8.21474260751351
C        11.25295138636851   -1.96258736224997    8.11800584013107
H        11.73021933788564   -2.04848207502444    7.15566665195530
C        11.86653141370370   -2.44375519136941    9.26229627938780
H        12.83710366230273   -2.90901293680385    9.19239917588646
C        11.24988500515977   -2.32967610462489   10.49617984441409
H        11.72904049237481   -2.69548156449382   11.38954865133310
C        10.00246672458455   -1.73158294945991   10.58621518065446
C         9.35941980144110   -1.24125742041729    9.44712934174553
C         8.06059532803718   -0.55108266077634    9.50955015870311
C         6.81152966553668   -2.45759690953576   10.22839162938941
H         6.70878799133460   -2.52077483555663   11.31713190732609
H         7.68380889162586   -3.03286679804612    9.90205523440394
C         5.54382308587400   -2.93970291343801    9.56124918820077
C         5.56388000634732   -3.35000447718144    8.23397073115852
H         6.50001912695951   -3.39702265671679    7.69875723231237
C         4.38877811139036   -3.67466632877773    7.58020311365633
H         4.40366062083139   -3.97437675477817    6.54484095129045
C         3.18609610134075   -3.58750394735753    8.26157210152745
C         3.14833548066958   -3.20387115205910    9.59407018356114
H         2.20489149319068   -3.16797850143800   10.11683444450786
C         4.32719906960376   -2.87387763980035   10.24117230338502
H         4.30820272023014   -2.59793136696108   11.28614899154060
O         3.36255226220499    2.47226267828057    9.73759801607116
C         2.23531522343455    0.49271746605237    8.39254789291069
H         2.13411414683495   -0.58591826574156    8.44220393110378
H         2.72838399484708    0.77513277440850    7.46843787549789
H         1.27660592537768    0.99139756991435    8.47580533701806
C         2.16520781389764    0.57186603109208   11.12861041180730
H         1.98861472405187   -0.49596624152376   11.07483997730599
H         1.24740613491273    1.13717286900712   11.01571287267388
H         2.64953270923507    0.82260317976996   12.06651886739351
H         8.05528906895730    0.48724934404836    9.17950302155998

