93
CSD_code = OFOSUZ | q = 0 | S = 0 | Stoichiometry = C42H43AgBrN3P2S | MND = 4
Ag        5.15154372717138    6.90080570136813   12.11092518858418
Br        2.60151555442650    6.86067026267306   11.91701116412844
S         5.90058842468681    5.98428968682447   14.60981478423670
P         6.22035398325670    4.80024573401233   10.89862283431670
P         6.51375813971029    8.73775701944462   10.95821364680097
N         5.65442497914677    3.51611513428460   15.44127354858066
N         4.21065318364253    4.12784908750703   13.77554431275349
N         3.69965672351353    2.87035792010615   13.85064664551454
C         5.20612209542524    4.47124147961342   14.61053946829223
C         2.81535348679728    2.46800908824699   13.02848494047527
C         2.23681264066017    3.26173957306944   11.90378617183368
C         2.32033233399981    1.07189063647673   13.21360977076286
C         6.14248488750032    5.29803958384457    9.14178611991239
C         7.22604343645653    5.31135988340680    8.27181182449724
C         7.06437915890042    5.76572652125509    6.97416856337366
C         5.82493699815745    6.19501926554399    6.53081440854026
C         4.73821971240914    6.17039131153758    7.38903502298747
C         4.89857865304523    5.73606019556150    8.69083453499978
C         5.81384808458971    3.02282957246616   10.79848031484117
C         5.06507993903514    2.47373372580008    9.76325496043867
C         4.70536167308458    1.13845294237351    9.80360052600400
C         5.07635874618076    0.34631070361842   10.87716416766666
C         5.80998471636195    0.89294819265265   11.91874095168336
C         6.17178342217975    2.22440162523816   11.88379180653842
C         8.00517245162366    4.69485676428086   11.23275995096401
C         8.57308805520420    5.61781528952455   12.10036653933323
C         9.93006135729110    5.59629687480817   12.36169789773222
C        10.75132805521535    4.65668507082391   11.75566873909492
C        10.17472208040802    3.71660926929372   10.90493368615971
C         8.81907040084686    3.72518081927437   10.64883035942484
C        12.22559627174657    4.63167465117378   12.01734959603145
C         8.32834581025020    8.71996950645062   10.85851417578446
C         8.93799761161036    7.87052541830199    9.93701210163030
C        10.31270512638401    7.74463093787277    9.90660397921546
C        11.09348890100954    8.44765148606929   10.81029230099322
C        10.49170162530771    9.27031125451214   11.74824181183903
C         9.11529869564898    9.40303102393752   11.78027932781182
C         5.98997614182048    9.13765541738760    9.25626390098525
C         4.61814516386810    9.08181078421439    9.02489340211373
C         4.10330503032153    9.40698188100238    7.78547875526214
C         4.95713047451884    9.77875266403293    6.75980510107099
C         6.32205265649604    9.83544576563306    6.98447386199088
C         6.84132683027687    9.52455705221174    8.22870510374152
C         6.18099838371489   10.34808707453723   11.74262101593284
C         5.44952185972496   10.38416418880936   12.92293060008561
C         5.16739583402170   11.59182943984534   13.53285968026321
C         5.60696584624956   12.78587325202762   12.97523443280452
C         6.33641564765808   12.74243208609896   11.79009054607782
C         6.62170525341480   11.54067483204346   11.17507535254711
C         5.28098781176753   14.09763179658558   13.61939625636671
H         6.30957630675336    3.76270501047386   16.16079336766907
H         5.12402407228524    2.65890571864377   15.48208911298321
H         3.81463127666479    4.84177330810187   13.15392464901693
H         3.03033235705858    3.66997848201126   11.27590694587690
H         1.65964653997897    4.10824171912817   12.27760551252841
H         1.59008836855709    2.64247103756446   11.29078272376623
H         2.79850047878214    0.60605848328078   14.07017633039082
H         2.53505503847034    0.48820550967653   12.31962014079902
H         1.24154093538730    1.08017799579454   13.36092171065387
H         8.19747920870293    4.97507196937378    8.60651542147686
H         7.91379913558241    5.78531811951362    6.30602981624159
H         5.70722917800513    6.55151819597573    5.51830108213692
H         3.76876158931401    6.50093061773535    7.04856662190951
H         4.05500341337832    5.74045203199811    9.37154373724489
H         4.76936080067441    3.08919968965697    8.92495390427306
H         4.13093123205717    0.71567516289206    8.99189604760281
H         4.79461646158787   -0.69631042538224   10.90357493099928
H         6.09542444714313    0.27928868384005   12.76050463293611
H         6.74243468837655    2.65715258965642   12.69563151395747
H         7.94805350975542    6.35354751783426   12.58847458194744
H        10.35286709948653    6.32314989564043   13.04006824360298
H        10.80168269419879    2.96843901042395   10.43928894791383
H         8.38488961985092    2.97574508379340   10.00012571502647
H        12.53768228427688    5.52036522625912   12.55985495785542
H        12.77920654047420    4.57725307714559   11.08128843113254
H        12.48876952987310    3.75520016853387   12.60970076863313
H         8.32137920851226    7.31194395864843    9.24559042841686
H        10.77718020484100    7.09014524500074    9.18299259292152
H        12.16882090190211    8.34755949606892   10.78830467178570
H        11.09774787794067    9.81007747851993   12.46192202033419
H         8.64832048995536   10.03882791798168   12.52021870091157
H         3.95602034718393    8.77951238595293    9.82715677433354
H         3.03708619903361    9.36655337926671    7.61931839654557
H         4.55971288998742   10.02653473151868    5.78637918528638
H         6.98975141053716   10.13071081692935    6.18751703318618
H         7.90793289975956    9.58466700590689    8.39374192806158
H         5.09989823279146    9.45571660661459   13.36655961954675
H         4.59728007216708   11.60785510137482   14.45054460602280
H         6.68125069283216   13.66541810552700   11.34502762060481
H         7.18695829897737   11.52040956716234   10.25309918328727
H         6.07392530628142   14.82255484798058   13.44869723557858
H         5.13191488639007   13.97887020354911   14.68992691680869
H         4.36095519738456   14.49934982461381   13.19332908447781

