73
CSD_code = OFOTOU | q = 1 | S = 0 | Stoichiometry = C20H43AgN6PS2(1+) | MND = 3
Ag        5.07253785323287   14.90470124833651    8.48962330569005
S         4.28230736221525   17.51743692705583    8.62530277579292
S         7.37342822993217   15.18656827785858    9.72152095717776
P         3.58430631538615   13.09451948208065    7.61828895204197
N         5.11165905127555   17.22231962924342   11.12839865027562
N         3.45020433904077   18.78165560102543   10.71708068490478
N         3.31793828382445   19.23602459436997   12.02737079616341
N         7.55133403331789   17.25990740426573    8.05224559772664
N         9.50236167712367   16.27201460071552    8.73880195528221
N        10.23306784460630   17.20255889109111    7.99125520507757
C         2.67903866286754   13.52495717901693    6.05526219071193
C         2.00242529821636   14.88768326095640    6.21960396643310
C         1.40813405773591   15.33822291315929    4.88798729607616
C         0.41302658684338   14.30182696766778    4.37329113361153
C         1.08356504460801   12.93891688083364    4.22899944807706
C         1.67355219597286   12.48570247672328    5.56417917978186
C         2.23948267110236   12.67699794128286    8.84295702209476
C         1.79299974683679   11.21607621843747    8.90315340928353
C         0.62893941121499   11.08162850072138    9.88490093651325
C         1.03951594058744   11.55973446917996   11.27413466049433
C         1.51338454572080   13.00987147538133   11.22353814910960
C         2.66676570106862   13.15374924484578   10.23494148693744
C         4.50868378271315   11.52472098514754    7.25799602781375
C         5.36691007408224   11.19860500868583    8.48332561654605
C         6.27126545831925    9.99718777778165    8.22815858950453
C         7.17163975891834   10.25781501695105    7.02680116867693
C         6.32083826352526   10.55000006065912    5.79673404982219
C         5.40453856917468   11.74698088374128    6.03797122816696
C         4.29235045083529   17.83913508793657   10.27408706951586
C         8.16312482078643   16.32023274339333    8.75909093011708
H         5.76812609118572   16.52347286508623   10.79133981981465
H         5.09883297744159   17.42616433407778   12.11494224549464
H         2.85294034338150   19.23448370740139   10.03591439101500
H         4.17919318765232   19.64332207279785   12.38271570915777
H         2.98262020253067   18.50955823773787   12.65506057573670
H         6.54189495893625   17.37654525513847    8.08716375096963
H         8.12263624998884   17.90633484305985    7.52761830644005
H         9.95635799635323   15.54146156835306    9.27900452309354
H        10.85571829664137   17.74140383716001    8.58920920010675
H        10.78758258082505   16.73988902551513    7.27409218879064
H         3.46813704616054   13.64227692306456    5.30024573649788
H         1.20332031602640   14.82512809236805    6.96146235826561
H         2.73407450356465   15.62284011296680    6.57630943241820
H         0.91238460245807   16.30188355473200    5.01341637434426
H         2.21000429830591   15.46743003465472    4.15802023448569
H        -0.42304380922700   14.22276370418047    5.07156677082094
H         0.01298532857313   14.62035176636742    3.41006447065933
H         1.87820980106103   13.00198059711153    3.48230764122686
H         0.35738436348395   12.20226676355590    3.88196433390287
H         0.86417374615635   12.38162436967583    6.28863982989738
H         2.15502946827742   11.51335632357693    5.44147874283250
H         1.38150849326744   13.28841336607438    8.53301845417238
H         1.48275037360812   10.86472004908505    7.91853890960621
H         2.61326145373184   10.58454212382879    9.24613882232133
H         0.31069037531033   10.03923029233400    9.93106329254768
H        -0.21849104954842   11.67349869150015    9.53198581755595
H         0.19665432746147   11.47092307982117   11.96042679412772
H         1.84586059750728   10.92779042192931   11.65228548786466
H         0.68590467126961   13.65141548424588   10.91199032380554
H         1.83185389129180   13.33147137422776   12.21663558888108
H         3.51896030071161   12.56399003444077   10.58255728684315
H         2.98843466701688   14.20777053884445   10.17520121308570
H         3.80620097224829   10.70797865054175    7.06307106821466
H         5.98517728398377   12.07660335303122    8.72043456237719
H         4.73431733756683   10.99934002401795    9.34964069400062
H         6.87499197561045    9.80016510364750    9.11541338806167
H         5.65775256891177    9.11391955017524    8.03765948802396
H         7.80853002780618    9.39216773256646    6.84167747173301
H         7.81828119297318   11.11308562685188    7.23630249080280
H         5.71222522599860    9.67385303486400    5.56280140150032
H         6.96068700381402   10.75004952047560    4.93568530647095
H         4.79804240178603   11.91165737603133    5.14611269813327
H         6.01061732685885   12.64752483440562    6.20992036453035

