48
CSD_code = OFOWIS | q = 0 | S = 0 | Stoichiometry = C22H24ClIr | MND = 9
C         6.39299951346853   -0.35502487808876    8.07907078415662
C         6.11133635880023   -0.38208291983441    9.41787543094415
H         6.86510190746118   -0.12892647020688   10.14795713033418
C         4.83081738633575   -0.75495016774392    9.86726784162316
H         4.64046966894123   -0.76916417481177   10.93100778227498
C         3.83493314972922   -1.08134989945331    8.98931809502955
H         2.84957063088524   -1.34593442697106    9.34523387160876
C         4.08327873460434   -1.07201926022902    7.60194125930365
C         5.38400968074074   -0.73345132833172    7.16187224752120
C         5.68981149472259   -0.71498337949901    5.77937994056593
C         4.70451203165084   -0.95864407185782    4.85607314638441
H         4.92364090243041   -0.92898586245586    3.79835354467049
C         3.40830720756691   -1.27859453568288    5.28952525444952
H         2.64546119258091   -1.47770600310050    4.55076701844625
C         3.10546801425758   -1.34892793252463    6.62220632787844
H         2.10535145009672   -1.60274435117511    6.94321212832191
C         7.10190951379025   -0.45042977312551    5.45136818388889
H         7.28190158285369    0.08095170307380    4.52031288992029
C         8.11305754012181   -1.29989929136632    5.94329783027733
H         7.83128039811980   -2.21369467846171    6.46105587365737
H         9.04787125554748   -1.37126943586271    5.39580664790636
C         9.12545448523230    2.23421512176099    6.06217090074259
C         7.69627689883031    2.43569758927555    6.26192676495850
C         7.45193164536363    2.55733788486876    7.65814737462427
C         8.66598383138909    2.23156686536266    8.32235843518393
C         9.71804032982340    2.11902583579880    7.31237542884555
C        11.16073015486793    1.96416496404226    7.65368860737358
H        11.77107757563029    1.85126489587182    6.76118946945921
H        11.30280877462126    1.08761460150096    8.28654320582514
H        11.50904680312555    2.83778289072918    8.20635194050375
C         9.80515938595447    2.26499039669992    4.73114360672980
H         9.91146221760494    3.29642778090342    4.38902286420143
H         9.23391003761670    1.72200836268559    3.97939986690186
H        10.79616322621444    1.82092307724501    4.78868467937367
C         6.73214066372111    2.85058383907722    5.19714236500073
H         5.74472950978688    2.42619950724541    5.37290973464398
H         7.07023155551055    2.54574092046620    4.20980757944213
H         6.63560440551812    3.93809891914834    5.19911190384876
C         6.17048742527393    3.00985983897935    8.28247147614189
H         6.05895808213983    2.60860841171507    9.28649148768831
H         5.31416189956260    2.68923513790516    7.69330902842944
H         6.15651167543574    4.09976819752808    8.34261319757238
C         8.94929088874369    2.35713982471013    9.78424300979480
H         8.02823120615314    2.38205882957611   10.36090861380797
H         9.50502275113822    3.27650187234660    9.97611156249158
H         9.55244510356007    1.51712752926478   10.12578397929686
Cl        9.34848379662167   -0.87774081192073    8.68662105543170
Ir        8.07046605585254    0.42392885489175    7.20746863250792

