42
CSD_code = OFUDOI | q = 0 | S = 0 | Stoichiometry = C17H14N4NiO6 | MND = 6
Ni       -2.42896571275446    6.75805906413352    9.66506379318650
N        -3.23298947112744    5.27837555186593   10.56246849853094
C        -2.71106564648077    4.05166988935973   10.77328794095517
O        -1.51841855376836    3.77855857928238   10.56805435621900
N        -3.54711690819298    3.07771418811069   11.25498787283230
H        -3.12639272541714    2.16786494771446   11.40784866000910
C        -4.90957343551077    3.19782694478976   11.54653862604175
O        -5.52696478343996    2.23843189070107   11.95851397083983
C        -5.39966136521939    4.52793759567945   11.29540710896012
H        -6.43380491552714    4.76220562289039   11.48178910064335
C        -4.56103750590839    5.47998113007237   10.82111305986766
C        -4.99979833470391    6.90038955263127   10.52708226710183
O        -4.05828245226356    7.63456127894180   10.03808403867677
O        -6.12369413260600    7.29775786877575   10.75559075716289
N        -1.90925640702323    8.26247081180207    8.67864734153379
N        -3.09577667825341    6.08631907776341    7.53863202726283
C        -1.29440588853710    9.29519977345925    9.21847394399171
H        -0.96238665547570    9.18627622770325   10.24299793587038
C        -1.06827132975559   10.48808979153159    8.52757328956823
H        -0.56128098482061   11.30137259817298    9.02177966802532
C        -1.51085201992446   10.60622023239265    7.23324876452393
H        -1.37032873152386   11.51883355501783    6.67303528658613
C        -2.16172022137597    9.51669698928787    6.63248889485377
C        -2.33380984601236    8.34290021669610    7.40061907777348
C        -2.65822502465164    9.56408757502358    5.29756533938424
H        -2.51729849847794   10.47670136276769    4.73770471880886
C        -3.29773218816388    8.50433710043062    4.74866694252614
H        -3.68376841722368    8.55077603633298    3.74103373915693
C        -3.47709331298300    7.29822915750749    5.48379282394092
C        -2.98475788428050    7.20718039913875    6.80409366350486
C        -4.12934165530949    6.17015153106476    4.95633033305294
H        -4.52555798858025    6.20571870278052    3.95166046623338
C        -4.24955388385881    5.04286127163949    5.73032119829803
H        -4.74681138158294    4.16063020945829    5.35969141564509
C        -3.70557281313166    5.04699711629907    7.02119347763748
H        -3.76953538428705    4.16578905989523    7.64561377483265
O        -1.67848755901138    7.60090597978848   11.88639945642945
H        -1.79093736902060    6.81777193341580   12.43600544901665
H        -2.48067018648480    8.12784775650332   11.99312236019533
O        -0.56726818094010    5.92873501187410    9.51051984330932
H        -0.79950375720161    5.00035335970423    9.83323303586578
H         0.00587019081352    6.29431305760110   10.19322568114552

