41
CSD_code = OFUDUO | q = 0 | S = 0 | Stoichiometry = C14H15N5NiO6 | MND = 6
Ni        5.56688004845413    7.68607223931527    2.86731075685206
N         6.48173255233250    6.25383491073243    3.75006734517546
C         6.01208257083320    5.02808271655329    4.06191698540272
O         4.81406014570863    4.71885533544152    3.97253415572858
N         6.91389433338201    4.09129985448489    4.49893676132924
H         6.53131510978633    3.18266403909878    4.73556305979498
C         8.29640464474935    4.24790690663505    4.64050610880906
O         8.97598731264995    3.31512534768935    5.01452292810159
C         8.72730222974877    5.57527480947305    4.28911909138217
H         9.76908061245252    5.83768310165640    4.36085865897037
C         7.82239349677214    6.49232253657020    3.86928452444731
C         8.19993504928139    7.90811491518438    3.47492081076292
O         7.19799505595563    8.61232250765554    3.07624448110029
O         9.34019187254512    8.31851711922317    3.55063674195386
N         4.91564008875346    9.14630315118889    1.87066333992647
N         6.13066284541511    6.98317480444206    0.75117136090462
N         6.87393475656268    6.15047313989636    0.05410077947237
C         4.22068417585599   10.13717856039560    2.41373749311031
H         3.96962163390454   10.03525678516753    3.46183168961162
C         3.82872763081812   11.25684001053894    1.69996554922128
H         3.27042464209529   12.04022046251313    2.18632543230190
C         4.17648150891646   11.34730343669762    0.36022181083340
H         3.89493607901351   12.20857115924308   -0.22642293289764
C         4.88979507404626   10.31175828166838   -0.21032330235174
H         5.17134149176321   10.33878963190133   -1.25040395763501
C         5.25189218786319    9.21448586417808    0.57158259337158
C         6.00479271312368    8.09955228114462    0.02634069467395
C         6.69917079652617    7.95003740882430   -1.18840563483715
H         6.80399163834547    8.65946152794264   -1.98215174903614
C         7.24669299326686    6.68961169930896   -1.12232297202928
H         7.86177131382978    6.15916310515673   -1.82073968923363
C         7.22218822076747    4.86304378710382    0.58268706417212
H         6.41951048597798    4.53232611573480    1.24126524465742
H         8.14738592183656    4.92421860675651    1.16159927106362
H         7.35284660768857    4.14871048029810   -0.22826072154504
O         4.95238508221839    8.59911263060162    5.10099626884794
H         5.72617736719610    9.17674494674021    5.10644832218014
H         5.15989439494684    7.85730103773494    5.67899428511812
O         3.72256731978954    6.80128769526893    2.89201520638413
H         3.19251246845284    7.19774774239229    3.59182236248500
H         3.99641552637433    5.90024930744457    3.24863978141327

