42
CSD_code = OFUDIC | q = 0 | S = 0 | Stoichiometry = C15H15N5NiO6 | MND = 6
Ni        2.56684511507041    3.75395379630705    3.03628935587460
O         2.95034863457336    4.70157885445341    5.24851296165877
H         3.88324657086183    4.91631958091417    5.14017206026992
H         2.89514067324183    3.91314028958000    5.79883391261057
O         0.73795664973977    3.18174076271120    3.68757503753184
H         0.18752939688002    2.88386610424898    2.95687512481370
H         0.99739751459794    2.35014774014790    4.19646218463842
O         1.78964259583875    1.04757915902648    4.68620614828248
O         5.59330431308138   -1.28152354718476    3.98400845487348
O         4.28892931742139    4.29270787328761    2.51427263860108
O         6.25188848263549    3.47845373846193    1.90172843322050
N         3.46269387573928    2.14607210755283    3.60570432474282
N         3.72874499959037   -0.04870162911632    4.33278839571758
H         3.31298671643933   -0.84276681748503    4.80683748315016
C         2.94122069088461    1.06719873621833    4.22258129135598
C         5.02640394624652   -0.21879984758842    3.84028836679428
C         5.51951010485613    0.96860058763626    3.19303460437945
H         6.51129961929917    0.97833950738552    2.77462230740167
C         4.73409915106695    2.06875214707455    3.10992262940023
C         5.17177315185029    3.35642933559238    2.44502252534855
N         2.17169905272482    2.84560124550767    0.90181099990076
N         1.89044080379445    5.35573717264513    2.25099046841044
N         2.77778898485582    4.95702612656057    0.08735629207833
H         3.27422579418793    5.42833855667403   -0.65661326750271
C         2.27034428977817    1.51777852593569    0.81565584196168
H         1.62857112559996    0.95626934388222    1.48335192678826
C         3.12290102932639    0.86721952264111   -0.05335946548332
H         3.17843748317581   -0.20876979876226   -0.06463105459102
C         3.91186031580739    1.63748606232100   -0.90005258214076
H         4.60303551216136    1.17059978339432   -1.58450476970834
C         3.79655443902617    3.01012879438743   -0.85350764113749
H         4.39130947971512    3.63986729793782   -1.49663231918549
C         2.91828393895872    3.58164260814188    0.07392194731889
C         2.25048276554704    5.79270072958682    1.03682141827415
C         2.08979312635210    7.14447395832256    0.68285453351592
H         2.41210485223553    7.47719010849172   -0.29198792149331
C         1.52822121542688    8.02317370392650    1.57771167341754
H         1.40331795729405    9.06327750418144    1.31803988422536
C         1.12269909272152    7.54458939868366    2.81992982448181
H         0.66819678580358    8.19494983923435    3.54817870092069
C         1.33292517830825    6.21384049830181    3.10954019985770
H         1.05334525728537    5.80179053877710    4.07018706942660

