40
CSD_code = OFUFEA | q = 0 | S = 0 | Stoichiometry = C15H14N4O6Zn | MND = 6
Zn        2.59348875042762    2.05248666500536    3.06217481358921
N         1.62304046861858    3.55424150188487    2.24551758958497
C         2.08660116672688    4.69077642917690    1.69809833498578
O         3.29636191596585    4.87579071374848    1.49628815619756
N         1.17696143731949    5.65438517305203    1.35754251871232
H         1.54545008484926    6.50107921635677    0.93958579860005
C        -0.20836527582210    5.59808111719135    1.55191648761740
O        -0.90160794278769    6.53713134824367    1.21897679515592
C        -0.62948458314911    4.36255101671784    2.15986440700081
H        -1.67380845335377    4.20019427050082    2.36366017592618
C         0.28916949215017    3.41691804389925    2.47054561885583
C        -0.09996081271211    2.08649281670626    3.11098746612551
O         0.81315915147696    1.18945611281865    3.06667283334226
O        -1.19987205662751    1.95868449308776    3.61673039309615
N         2.18464387728675    2.64845019972046    5.05330713850172
C         1.48734068891991    3.73276833865779    5.35072157987440
H         1.76287523220232    4.63310069197602    4.81912308883810
C         0.45685152205837    3.73536966471715    6.27754415893577
H        -0.09971446603484    4.63799081429158    6.46990603732383
C         0.14094014433433    2.54590733434090    6.91221202074114
H        -0.68432114131034    2.49311155957241    7.60544137217940
C         0.89547553551166    1.41805603186794    6.63536027751986
H         0.65729568090409    0.47566765600524    7.10113607850968
C         1.91804124263572    1.50822784474967    5.69669171461839
C         2.75191757575146    0.36133294327502    5.30860601114458
C         2.95521201444696   -0.73723893091097    6.14206565729650
H         2.50948121877046   -0.76908733581848    7.12302344695331
C         3.75185357271495   -1.77871509624166    5.70049495756414
H         3.92180675581382   -2.64032319207821    6.32855452655928
C         4.32528712771133   -1.69536928799357    4.44113808371552
H         4.94671237942994   -2.48795976452797    4.05672357385961
C         4.08063282018943   -0.56320953839868    3.68114688482380
H         4.49890833789352   -0.44964015657287    2.69170167624699
N         3.32367576066210    0.43393090646069    4.10587387820840
O         4.47172401355118    2.89810519833140    2.67807313624222
H         5.03889605579191    2.47553286063003    2.02872543972643
H         4.15753126946101    3.75000265179677    2.23674516714299
O         2.78508443301723    0.89770827339321    1.09092735611414
H         1.97767295819942    0.41458395382666    1.31120336707704
H         2.53874204700351    1.50102746053564    0.38219198149164

