46
CSD_code = OFUFOK | q = 0 | S = 0 | Stoichiometry = C22H18N4NiO | MND = 4
Ni        2.97478797465129    3.12911647508375    7.17166475255126
N         4.68248340236081    3.45708607559644    6.34834801847047
O         3.69873428936901    3.21893870628235    8.87110330415564
C         4.90578901213475    3.46490120345458    9.21920487146812
N         2.34190840801800    2.77011297720528    5.45100450599889
C         5.15705734561087    3.72002269431983   10.59502220641920
H         4.29510687634276    3.76115847936426   11.24405156721514
N         0.28503606486182    2.23038847504129    7.35619364156049
C         6.42419649972213    3.88826238321811   11.07240846523446
H         6.58692460798199    4.07855910420946   12.12352418712871
N         1.25280352388455    2.87555354678528    7.88980631201647
C         7.52024011053881    3.81787624890032   10.20372102522539
H         8.51987286756481    3.96094732710185   10.58516504710182
C         7.32008790563174    3.58082766671673    8.87111764303962
H         8.17687644742814    3.56184325245839    8.21549648206171
C         6.02817130976250    3.42269808368182    8.32797788832240
C         5.84946938792462    3.25490448677120    6.91549824667958
C         4.50614499487904    3.58973902868345    4.97108944908353
C         5.41377087526408    4.18891936904738    4.09999213453635
H         6.33211286730358    4.60978926265105    4.47620203679984
C         5.11094088597979    4.31055204943419    2.75621243895408
H         5.81983088332525    4.78167376974449    2.09229469596802
C         3.89971945100646    3.85092904473180    2.26326276425007
H         3.67098135224136    3.95059104575164    1.21309338059606
C         2.95923848123496    3.31041917740457    3.11947851205366
H         1.99175990904640    3.02788672118622    2.73362846400786
C         3.23970002983319    3.19289544327745    4.47895024318524
C         1.25969716190471    2.08512159524656    5.16490568998432
H         1.07666664056998    1.75318182290653    4.14757849658842
C         0.28141425578059    1.78961230805162    6.11971840778890
H        -0.59139847817146    1.22302529503588    5.83699180790914
C         0.96287036257781    3.36908017863424    9.17561154279657
C         1.42248579676301    4.63161564657546    9.54832245195213
H         1.99056624562474    5.21447177322361    8.83177358152522
C         1.14962568579224    5.12261559026236   10.80949065099515
H         1.51404153788775    6.09830906054135   11.09615174544024
C         0.40643362132253    4.36951644129829   11.70525968148853
H         0.19912119499721    4.75335665159258   12.69323648533471
C        -0.07229096314929    3.12479561516524   11.32924985220672
H        -0.65513691729979    2.53843073637276   12.02452724461258
C         0.19753695394074    2.62353445891064   10.07053602911453
H        -0.16063413418824    1.65105194913476    9.76917968374068
C         7.03842821465879    2.77677401113042    6.12233356423298
H         6.72241327147648    2.36934135234867    5.16436055417611
H         7.54494540651682    1.99391416774020    6.68396090036809
H         7.75326837909028    3.57785924772234    5.94109934566209

