106
CSD_code = OFUFAX | q = 0 | S = 0 | Stoichiometry = C30H67N8Nb | MND = 6
Nb        0.27683832763620    3.18396063126033    4.25813050240145
N         1.32896787313418    4.83829295512011    4.71963438844652
N        -1.15392171045951    4.08629805795216    3.69001383745652
N        -0.86544784109223    1.09543407125304    4.47628511197088
C        -1.72388724116793    3.92007607137808    7.51225474918538
H        -2.65560116618988    3.45917676115368    7.19036531623472
H        -1.44847096762578    4.68107821663435    6.78291559102512
H        -1.87082771725776    4.37571572741296    8.48975839356711
N        -0.36395140749986    2.37448086047862    6.21916622866642
C        -0.17870325010766   -0.70810837297214    3.00199325778779
H         0.64489461835396   -1.01497103020937    3.64270089506582
H         0.18449576144238    0.05169411118851    2.31453423469249
H        -0.51963473419015   -1.57446318259606    2.43750675007885
C        -0.97839400454984   -0.41704581681018    7.58668548206406
H        -1.49109142411571   -0.38310263721303    8.55730533522610
H         0.02488626743158   -0.01010577582186    7.72448769296090
N        -1.67303832542717    0.42598405222882    6.64454208313619
C        -0.96169485596683    1.28076647761924    5.76617491455472
C        -1.32282567551930   -0.11087983172234    3.82526295972114
H        -1.64552485525018   -0.85663061636260    4.56763519567757
C        -0.60876127097133    2.86853630170851    7.55681408477421
H        -0.92909498770232    2.05210553402266    8.22013658630798
N         3.30931370117038    1.23694222175719    2.21990760441354
C         1.46683108010806    4.57176472198863    1.07029971184713
H         2.43309801758250    4.89650316891347    1.45129133049792
H         0.68640861746635    5.00553722491153    1.69493859212354
H         1.36324880675551    4.92105887862775    0.04474747816790
N         1.36877400062318    2.61995229345158    2.51489851706557
C         4.29068953197992    1.53576174746283    5.86721402480743
H         4.86701855049186    2.24549911996348    5.27884398570967
H         4.97202503885443    0.78314993586939    6.26077126488904
H         3.84805650037913    2.06875715465303    6.70689072777670
N         2.34849237186540    1.78834661634323    4.33593421091748
C         0.03496165424827    2.59788163442755    0.48264283367509
H         0.01279358817050    1.51941893317667    0.33446652272103
H        -0.10093505538544    3.07790362829541   -0.48412824128641
H        -0.77804230783985    2.87647546699100    1.15429384852403
C         3.19674960696718    0.84997799608385    5.03219632851095
H         3.68576309819816    0.17117443034309    4.31276726180886
C         3.29618345424850   -1.16064276478608    1.60718754248193
H         2.96207597337526   -1.85051060220152    0.83594255458464
H         2.81179471562906   -1.42389383090587    2.54391383041906
H         4.37093979982779   -1.27431341382888    1.72879902119639
C         4.69378359988172    1.63801311482580    2.27542506814436
H         5.33555362255582    0.74951221584161    2.22504218855363
H         4.87154129968813    2.12430619042980    3.23444524565769
C         2.34506123963037    1.87716134671022    3.03705692946998
C         1.35122552539927    3.04219596849162    1.13187803315117
H         2.19735069049088    2.61125907128084    0.57765636561637
C         2.93753700045877    0.27602549628510    1.20924411492805
H         3.43193582763973    0.51175016384977    0.25715266183240
H         1.86020926356639    0.33199053048440    1.05047643911264
C         0.57436929818344    6.94581464833678    5.85353120409970
H         0.21524415061363    7.94871407865480    5.63372772378524
H         1.41992685913810    7.03276824651652    6.53234218636259
H        -0.21591308300311    6.38748802658249    6.34932944497171
C         3.77088912170296    4.92803235438765    4.23970009418044
H         4.74697189297679    4.77696781676556    4.69766989962828
H         3.74344587030483    5.93283080715802    3.82243403018416
H         3.64040072540418    4.21114379874193    3.43230063093137
C         2.65991308767083    4.72251819535343    5.28080980828055
H         2.76825036096075    3.71831468357051    5.69385176157731
H         2.81460542386186    5.44881815182048    6.09504226545746
C         0.96448981031850    6.23505683977120    4.54753954069252
H         0.10910674538697    6.26731597460499    3.86995639438166
H         1.79122989384097    6.79417052837984    4.08409442844183
C        -2.88859118248452    5.64339381540417    4.38877530923061
H        -3.16239400927391    5.04341884735806    5.25098141734131
H        -3.76548800746770    6.18482975054341    4.04042339069932
H        -2.12520753155547    6.35731707204278    4.68336816818029
C        -2.34952756184710    4.72445321296173    3.27148598756314
C         0.67281691338030    3.48818145133594    8.11614243251536
H         1.46758326456578    2.74542674149147    8.16601107180259
H         0.50200273799637    3.87746649114184    9.11808021471768
H         0.98873967445606    4.30079158869727    7.46460191769690
C         2.33473461068918    0.01896058046549    5.98645732661913
H         1.56953849372478   -0.52660919113732    5.44059146076087
H         1.83887939233492    0.68658914729995    6.68881073698083
H         2.94764999900223   -0.69135838511732    6.53937355461589
C         5.09937924519555    2.60950318178420    1.15895801766464
H         6.14285118389932    2.89003225422801    1.28239533775040
H         4.49070841861985    3.51009808528171    1.19566483777342
H         4.98220687272699    2.15285019713718    0.17881569258626
C        -2.13019948151784    5.57941080971773    2.00414444913204
H        -1.72889832471839    4.96699581577610    1.20232785564979
H        -1.43158851176694    6.38656687554263    2.21049908226688
H        -3.07458978827716    6.01023307213830    1.67893169835995
C        -2.49220606107004    0.18892585719445    2.88097666505923
H        -3.35522866714647    0.55682595791878    3.42878569841869
H        -2.78180970901741   -0.71201531173287    2.34325976879735
H        -2.18310644146516    0.94993727296225    2.16836340493698
C        -3.08949687884241    0.22902098104944    6.44380018996624
H        -3.39065320255778    0.90543497195008    5.64163589510668
H        -3.32455952040159   -0.79947338451451    6.12839586068462
C        -3.42232909607098    3.65740326563840    2.97313316203279
H        -3.14969201013820    3.09009995803029    2.08796585997321
H        -4.39300787532835    4.12073152770571    2.81141936664263
H        -3.47995306573997    2.97816402611149    3.82048000091189
C        -0.85404559307192   -1.88326042271703    7.15314585591220
H        -0.29166358222450   -2.43695656333273    7.90145907550969
H        -0.33315208797990   -1.95983394690374    6.20186212130759
H        -1.83444792762242   -2.34289959040549    7.05163459657413
C        -3.91311510617506    0.55060271095216    7.69506273005212
H        -4.97064629092146    0.54943238188479    7.44244149030022
H        -3.64649214540527    1.52975604466119    8.08419506466231
H        -3.74908153082358   -0.18995252663523    8.47381423196676

