149
CSD_code = OFULIM | q = 0 | S = 0 | Stoichiometry = C66H76Cl2P4Ru | MND = 6
Ru        6.95473890773390   11.22200698208657    0.00012294447041
Cl        8.15052331695975   13.14974846671836   -0.83470760046293
P         8.07842002114807   11.67743912168868    2.04408160803586
P         5.41184738622942   12.87773253766703    0.73945701604530
C         9.88076718706589   11.36778045447105    2.14785276453535
C        10.67954845493320   11.90071122802842    1.13967654555305
H        10.21798922653873   12.33996452917489    0.26497442651340
C        12.05701113245883   11.87228303010213    1.25086862155683
H        12.66703597170012   12.30197014012577    0.46916518255654
C        12.65151929032072   11.29530778144638    2.36052279115519
H        13.72788676345546   11.27913061746779    2.45323396278898
C        11.86168233587864   10.73296913915213    3.34866695192564
H        12.32056059163899   10.26904195761917    4.20997985691096
C        10.48222309816921   10.77334630162168    3.25046887404437
H         9.87774706245980   10.34028916878458    4.03403908320047
C         7.52604930842818   10.96188511605791    3.63832658130302
C         7.35506677383002   11.67808372699197    4.81975765109941
H         7.55538109163335   12.73583984559374    4.87057354892316
C         6.93310092337639   11.03573568634730    5.97071584130440
H         6.79873860343253   11.60815683552867    6.87771078987159
C         6.68660314903194    9.67376434491634    5.96973724212893
H         6.35210847144191    9.18237951877172    6.87194201942564
C         6.88034154917314    8.94766388358943    4.80728500999634
H         6.70228367966331    7.88240417745076    4.79356111323613
C         7.29651682271143    9.58875643668532    3.65640739154865
H         7.43986594731547    9.02793502547928    2.74827473703758
C         8.24340584476143   13.46823799790274    2.47654868275200
H         8.88712264336603   13.50914104372830    3.36273207167696
H         8.78988886106442   13.94377309582176    1.65638907173830
C         6.92087196571618   14.19414343901703    2.71659457944773
C         6.21161942024367   14.42033219354139    1.38775161125225
H         6.92198227389794   14.79475281613141    0.64840747149904
H         5.41180293446054   15.15685009095998    1.50083027060905
C         4.29730239954456   13.71025806174796   -0.44890065400345
C         4.83357776866884   14.62492227946159   -1.35049978006408
H         5.89335697399629   14.83516350124163   -1.33462472628504
C         4.01772998708584   15.28018204939270   -2.25454498131039
H         4.44807909913827   15.98142298508492   -2.95491984745877
C         2.65339195058498   15.04778758101251   -2.25341111924667
H         2.01410784542763   15.56475864850202   -2.95399421525948
C         2.10958472689489   14.15667892055388   -1.34363998469163
H         1.04363843726162   13.98250384270932   -1.32665877759298
C         2.92485570271225   13.48520309144213   -0.45184662033133
H         2.49270403059375   12.78857587010403    0.25126944015387
C         4.28540174404493   12.62216637537342    2.16286937096722
C         3.42610182651530   13.64233301442544    2.57234120479614
H         3.33469070489355   14.54622130793155    1.98630475928252
C         2.67446793267181   13.50321055640113    3.72186671975259
H         2.01406909902127   14.30189487871459    4.02879505093878
C         2.76895589230807   12.34846349208101    4.48450134432371
H         2.18467223551135   12.24864479928087    5.38779593146299
C         3.60875447718995   11.32796562924306    4.07946329608504
H         3.68853223864294   10.42139366468129    4.66108366404872
C         4.36159075858371   11.46462184715436    2.92495684942009
H         5.00493571093210   10.65686477650487    2.61320455740335
C         7.16181848814124   15.52343359516925    3.44528917517980
H         7.58757920804035   16.24895143536542    2.74835005359512
H         7.89627621665406   15.36543560469560    4.24004848910614
C         5.89192318251335   16.09203861070747    4.07621071194075
H         5.16139304451201   16.33170744812414    3.30141245347165
H         5.44292255194372   15.33375039990060    4.72356924793863
C         6.17509435495368   17.35055661446800    4.89264741104298
H         6.89994103081294   17.11849823350831    5.67683517477786
H         6.62245381602897   18.10838772890017    4.24504640199195
C         4.90740701902640   17.91374430027526    5.52986585054758
H         4.45975528052970   17.15267223046813    6.17372869649465
H         4.18333242746738   18.14908221199286    4.74602708505995
C         5.18485002889203   19.16974425188535    6.35204753918535
H         5.90996020463636   18.93492877498377    7.13471858346276
H         5.63018393313531   19.93092607240406    5.70730839574835
C         3.91575191249132   19.72374856166123    6.98760947525533
H         3.18710413563727   19.98153041932114    6.22195591629496
H         4.13527187654998   20.61739390829824    7.56713796058026
H         3.46800120254764   18.98621392915103    7.65033717788532
H         6.27442985402846   13.57353517657964    3.35113105043346
Cl        5.75386348623868    9.29532789604332    0.83222997003918
P         5.83062289023181   10.76504686178789   -2.04354746767506
P         8.49733572581440    9.56553131756651   -0.73977510324917
C         4.02810505792843   11.07443928989295   -2.14719284807493
C         3.22954608641226   10.54122218789325   -1.13898466328875
H         3.69145785152621   10.10201226294461   -0.26434872028812
C         1.85202313786100   10.56920730707510   -1.25019695254347
H         1.24206474039721   10.13937980699806   -0.46851704967246
C         1.25725977666862   11.14595016572637   -2.35986124741176
H         0.18087246580525   11.16185052397861   -2.45253523158836
C         2.04687507931031   11.70846517312715   -3.34808060357948
H         1.58780757621498   12.17221102041897   -4.20940527972755
C         3.42635565864153   11.66857548343972   -3.24985333685365
H         4.03061546001395   12.10174603312261   -4.03352539463700
C         6.38247162246118   11.48084306917349   -3.63784407092381
C         6.55305942727848   10.76484410591183   -4.81945406924818
H         6.35270260955515    9.70710528408995   -4.87036139833329
C         6.97478922171063   11.40735188602560   -5.97040452775855
H         7.10908477244214   10.83504218758536   -6.87748522354825
C         7.22120275987363   12.76933619080697   -5.96926748460054
H         7.55557184959413   13.26082102574002   -6.87147063863397
C         7.02777831126866   13.49527429767304   -4.80664321601085
H         7.20583395461785   14.56053591010445   -4.79288103031147
C         6.61216836953943   12.85396088793497   -3.65565366494527
H         6.46955694138644   13.41444758235333   -2.74713249349887
C         5.66568328241276    8.97428433390411   -2.47618575484577
H         5.02176605760851    8.93339705845440   -3.36223379374135
H         5.11945344191094    8.49866421598125   -1.65589858575848
C         6.98837215049850    8.24876042063565   -2.71655319522154
C         7.69795426306006    8.02263671065772   -1.38789283881782
H         6.98781974837021    7.64793527494848   -0.64849413100982
H         8.49789462732263    7.28628260467216   -1.50110026310661
C         9.61216611829471    8.73297598347820    0.44832460432591
C         9.07596831017107    7.81867248526291    1.35035573504230
H         8.01612312642735    7.60876160421755    1.33495734904389
C         9.89195618098486    7.16340317115559    2.25428358941713
H         9.46166228845876    6.46240340700828    2.95493582294763
C        11.25637203158246    7.39534934031935    2.25257592894737
H        11.89579577917566    6.87821989160027    2.95292300802969
C        11.80008651074612    8.28613473019791    1.34243816402276
H        12.86609455911747    8.45991371449837    1.32496801671232
C        10.98468483753430    8.95768192976967    0.45079817794146
H        11.41679423835379    9.65415924111879   -0.25249146523126
C         9.62347812161799    9.82153683204619   -2.16326870256563
C        10.48290595303337    8.80160825128945   -2.57307872500339
H        10.57440546783656    7.89755190963476   -1.98731583695415
C        11.23445359425051    8.94116820611677   -3.72261357214904
H        11.89499358087102    8.14268619998379   -4.02975979995575
C        11.13980402652971   10.09612531351634   -4.48490477629226
H        11.72424572387377   10.19641910948426   -5.38804000955807
C        10.29973288531334   11.11630350466715   -4.07964060724096
H        10.21978046886124   12.02306885196398   -4.66093293717662
C         9.54691835137846   10.97916091931692   -2.92518550615654
H         8.90321132616619   11.78662358984796   -2.61347765738223
C         6.74745548977628    6.91943043995641   -3.44517521621269
H         6.32195879234670    6.19385790838559   -2.74812674760914
H         6.01282545903119    7.07727842157635   -4.23980816591754
C         8.01736236753416    6.35104671305529   -4.07628092158698
H         8.74809401272250    6.11165985644713   -3.30158611524345
H         8.46606347948996    7.10934505682221   -4.72383786468830
C         7.73429954040148    5.09232524797312   -4.89245946376646
H         7.00922653180178    5.32410149857584   -5.67652085113782
H         7.28726194687566    4.33449218202380   -4.24463841563494
C         9.00198980647883    4.52934076770176   -5.52986718742628
H         9.44936145841324    5.29044858060040   -6.17388356918100
H         9.72626115169026    4.29421653579400   -4.74614490404293
C         8.72469165881385    3.27320782149045   -6.35190572291329
H         7.99945866425833    3.50780031236335   -7.13453104202875
H         8.27958198322919    2.51198076109561   -5.70706409793624
C         9.99384651059931    2.71941395771481   -6.98755024879862
H        10.72261792862476    2.46182088567156   -6.22195043035553
H         9.77445523962720    1.82568869128935   -7.56700478298539
H        10.44139404793692    3.45699286563805   -7.65036632939430
H         7.63448972474520    8.86956152147785   -3.35123546082693

