55
CSD_code = OFULUX | q = 1 | S = 0 | Stoichiometry = C27H22ClN4Ru(1+) | MND = 9
C         3.89707616148876   -1.41186408481623   16.68158100047373
C         5.01971972778741   -0.51657741519928   16.87922820785909
C         6.15201719349277   -0.81423970526733   17.63027210691026
H         6.21817635251949   -1.77853495815165   18.10691374860012
C         7.14056918044319    0.14457312875746   17.74750947700044
H         8.02814633637715   -0.04708626602465   18.32877459075051
C         6.96078725003460    1.36805828663058   17.11107357360413
H         7.70222041801816    2.14658960788580   17.18737162980206
C         5.80879232756473    1.58979523771882   16.37817286203255
H         5.63844655060935    2.53993811526599   15.88827996089804
C         1.62440411375825   -2.70585782477655   16.27511223156059
C         2.74755075049587   -3.36407684394832   16.87809236600949
C         2.78658275637591   -4.77768481138276   17.21735186137112
C         2.12531745891642   -5.73120386158358   16.43826718511789
H         1.57223591974283   -5.42601449209435   15.56286872950750
C         2.21159005236722   -7.06925747149227   16.76701445437929
H         1.70665809080317   -7.80218214532400   16.15691061052413
C         2.94455644342952   -7.47284858648780   17.87332372161247
H         2.99900811791050   -8.51932456306977   18.13051419512260
C         3.61388668390218   -6.53318980745043   18.64269669854832
H         4.19005932572361   -6.84734335242551   19.49926004108260
C         3.54742493404867   -5.19430777605955   18.31274804674256
H         4.05897822557843   -4.45085441213433   18.90380899912676
C         0.27577393899584   -3.25620426096368   16.21210595632957
C        -0.52994230770376   -2.98883410211721   15.10468487476250
H        -0.12287459662419   -2.41220753755307   14.28844723529908
C        -1.81811015123157   -3.48313104826016   15.04662559509499
H        -2.43126349238811   -3.28639227811666   14.18049930384742
C        -2.32409300923144   -4.22819305778316   16.10054404541461
H        -3.33151591150773   -4.61173683933217   16.05555811296266
C        -1.53809461654049   -4.47389074323162   17.21610547669401
H        -1.93700880266884   -5.03822535955781   18.04462501666946
C        -0.24328361103686   -3.99719286944661   17.27577388426952
H         0.35806719420349   -4.17298914993404   18.15465822792560
C         1.90334961603817    2.98016559782943   14.78109849541907
C         1.11735016790504    1.82656574955666   14.48082825696598
H         0.09456371307303    1.78099549461089   14.83804792622266
C         1.60170858152229    0.83165293639451   13.62580931436583
H         0.95023156733427    0.02137882417076   13.32046141655674
C         2.91826846410029    0.90684394978357   13.11375490476805
H         3.27139628442175    0.17495905294216   12.39656052667912
C         3.72764749944202    2.00261297081167   13.46990835655249
H         4.71249158840972    2.10806221736234   13.02631041710145
C         3.20418847371414    3.05485910994093   14.26225361230383
H         3.79146456783007    3.95300455858616   14.41787326553505
C         1.32010060098422    4.08103663447271   15.60180079900810
H         1.95653084288988    4.96208815594283   15.59776254797337
H         1.20492778044144    3.74494502890819   16.63437137878565
H         0.33203367415315    4.34809298272270   15.23105138041194
Cl        2.44038929235172    1.43293505953538   17.60339024250419
N         2.91660973472150   -0.86204864850875   15.93391763900817
N         4.85637377941400    0.66972545140302   16.24736015643744
N         1.79313135442806   -1.48954035149781   15.78207246807456
N         3.84244757663626   -2.65410712526601   17.12169012273765
Ru        3.06623583456504    0.97836359807654   15.40450274461713

