20
CSD_code = OFULEH | q = 0 | S = 0 | Stoichiometry = C3H11I2NOPtS | MND = 4
Pt        6.61055519254667    2.79691548292144   11.69987743505738
I         4.46560069552715    3.71841521268970   10.58598318740395
I         8.80623952438183    2.10531119115124   12.87862133772406
S         7.23379863799801    1.96660260229443    9.73577587608353
O         6.32809095009156    0.93296882492851    9.29643196060524
N         5.89571452780447    3.50981148312495   13.55039473939433
H         6.67523363645590    3.80847470436774   14.14535342616117
H         5.28172536518466    4.31639603014182   13.39509792888487
C         8.90998648872992    1.29022747555996    9.51761051594898
H         9.04697712188516    0.45766367617042   10.19940093736480
H         9.64567413545803    2.06247658368541    9.71074975916602
H         8.96605217309931    0.93525903024093    8.49461348944483
C         7.33930537731842    3.25239278916676    8.44953314812360
H         7.79306809601297    2.82007533296985    7.56524075535170
H         7.94441078136556    4.06611170362658    8.83941504877949
H         6.34036369275987    3.60413923658559    8.21551097818151
C         5.13983121942258    2.45228046852888   14.23487365547371
H         4.30290653061457    2.13714836046640   13.60882730688185
H         4.74648169912661    2.80177517512757   15.19258613832027
H         5.79088415422429    1.59535463626242   14.41780237565923

