24
CSD_code = OFULIL | q = 0 | S = 0 | Stoichiometry = C7H11I2NOPtS | MND = 4
Pt        1.17977124374277    2.16440424989579    5.78999081465360
I        -1.39676841468880    2.16458824743496    5.64838875876764
I         3.76346658101689    2.16478428363172    6.06304666551332
S         1.41860462812909    2.16470595801961    3.55073978406511
O         0.23301073881629    2.16469842469463    2.72863895323199
N         1.01142092167795    2.16464166380407    7.75433559687212
C         0.95222519250441    1.01409345760161    8.42115134450300
H         1.00177557395045    0.10418528644418    7.82943629667039
C         0.83130591355067    0.97202955434471    9.79700295262130
H         0.78584073966216    0.02115666068614   10.30235219377487
C         0.76881525340345    2.16467514866259   10.50178054147764
H         0.67240937965135    2.16468607593959   11.57605921805360
C         2.43574075413835    0.77726255040536    2.94541944741802
H         1.98646366505545   -0.14568382612296    3.30228174559267
H         3.45442745431481    0.86493187914992    3.30326939456656
H         2.39312127409982    0.80817150405981    1.86259122041390
C         0.95226327655843    3.31521380902825    8.42112256054614
H         1.00184458203995    4.22511507164514    7.82939791730706
C         0.83134400790962    3.35730582400060    9.79697733932269
H         0.78590894782903    4.30818767285045   10.30231230693224
C         2.43577924102687    3.55208046967028    2.94533587831625
H         1.98651864377521    4.47504328291647    3.30217310286376
H         3.45446429893139    3.46439915740912    3.30318556875896
H         2.39314610290155    3.52112359382807    1.86251039775066

