87
CSD_code = OFUNUY | q = -1 | S = 0 | Stoichiometry = C17H43B18CoNO7(1-) | MND = 10
Co        3.20006456158015   -1.49064737824410    2.73813550239183
N        -1.91481636020998   -3.55448063939539    8.59187312595000
O         2.31634075069413   -0.20471655482243    5.25879718955036
O         0.66357984984907   -2.18757334616195    6.80877867481264
O        -2.29528434695047   -2.18166037369561    6.41639164296924
O        -1.20552165258766   -3.65692336967872    5.11301357845145
O        -1.52644950905562   -6.50330119871842    6.80242819159282
O        -3.38811733937404   -5.28776871085616    7.13567502411200
O        -2.03266820704845   -5.45031199751672    9.80413441500253
B         1.51751665606051   -0.28182105808210    2.52617693268557
B         1.50351417005031    1.02238364754325    1.32022586425050
B         3.13380445036469    1.17653245334340    0.70007303619052
B         4.12730949343204    0.32273931306749    3.22785911565861
B         2.52926266268270    0.19142073477726    3.86394042965179
B         1.52357937778570    1.43357985680298    3.03372460798034
B         2.55321896779657    2.33476460536902    1.88603530952230
B         4.17844466336176    1.63866605923167    2.02842943422124
B         3.19293181735711    1.83396068563459    3.46672467347518
B         2.26397530511658   -3.28387778183401    2.31191187748572
B         2.27220750534892   -4.59444410668502    3.52166930554891
B         3.38231882047248   -4.13430004439544    4.79215069866765
B         4.89763047903411   -2.67777788256355    2.86675526750802
B         3.84184195876719   -3.17400325798523    1.58843950825766
B         3.19031870616829   -4.77985825987153    2.02517533514913
B         3.90663061876262   -5.28672024253445    3.57757592634493
B         4.97578207620716   -3.96246178825911    4.09171357884554
B         4.87956327930419   -4.39400922089191    2.38388551452804
C         2.52158459243984   -0.35176166279994    1.20788438409244
C         2.46860449499879   -2.95463447016661    3.93530137486813
C         3.99273454615187   -0.01252613255250    1.60313024200618
C         3.95110053467064   -2.60620553769501    4.24396030669176
C         1.09176541351417   -0.01220882442720    5.87033801217840
C         1.02106622227512   -0.86230905745916    7.14034461309828
C         0.88528333081369   -3.10188498362550    7.85448715848741
C         0.16360259233124   -4.40221123470946    7.53092063268072
C        -1.34587895099962   -4.15721400999433    7.40760442700943
C        -1.64697827700055   -3.18729175892229    6.24869884599625
C        -1.41052180223049   -2.87964793578517    3.92462827143944
C        -1.67847264953457   -3.82399490992613    2.76749953748278
C        -2.06589251899230   -5.47655151600538    7.09627035181744
C        -2.26800357089355   -4.26551196143581    9.68042671115142
C        -2.96462743750970   -3.43460557175200   10.74011002823405
C        -4.20745649652462   -6.44512226000832    6.96416114605630
C        -4.53702013389018   -7.06678687671908    8.31343859048330
H        -2.25839930858793   -2.61246156338799    8.43935425897450
H         2.36223784758261   -1.01596021749417    0.36504709905849
H         4.78770979916157   -0.45882676382731    1.01568017305197
H         0.51175728713500   -0.90774192212133    2.54249645852090
H         0.58868979595743    1.10326456525548    0.57415049624400
H         3.40671321177343    1.29740618326459   -0.44312055069915
H         5.15355574429559    0.14649254370793    3.78626146538664
H         0.58107487386466    1.92550863827876    3.56058728899771
H         2.35976213346321    3.46833609457153    1.60380348545969
H         5.21146905269178    2.16285449036999    1.79019592965858
H         3.46746921979539    2.60370500703378    4.32389825784549
H         1.71453934594326   -2.50943465963019    4.57239104334272
H         4.13653514258224   -1.91827245224267    5.06080573564600
H         1.21723066125246   -3.11097411816032    1.78436531194488
H         1.25601604050301   -5.13086042058898    3.80803209982208
H         3.17313894620492   -4.26350969009092    5.94802574181362
H         5.88507597606288   -2.02831250984831    2.78828548570154
H         4.02649831827878   -2.92798139531241    0.43670522717337
H         2.86676760349467   -5.55945364954674    1.19093493128546
H         4.11212959498454   -6.42088570224667    3.85161304552745
H         5.92689738757496   -4.03315336181594    4.79381748505021
H         5.79383104768238   -4.88926208772054    1.81250199544688
H         0.25357810733904   -0.29110132835584    5.21488867576961
H         0.95813268022962    1.04723864192784    6.15122557617567
H         2.00849932824046   -0.85059046032898    7.62167632065662
H         0.27950273451355   -0.44860432851710    7.84348750980425
H         1.96289218677967   -3.29024639411247    7.96986729472581
H         0.50703568674905   -2.68741497925923    8.80343313641326
H         0.33600958078470   -5.13651338549230    8.31778827101425
H         0.52611096644479   -4.80057721488242    6.58361539779710
H        -0.49798938950830   -2.30520026703304    3.74414785718543
H        -2.24430956088921   -2.19068191849922    4.09462964487566
H        -0.84057271233038   -4.50632466217160    2.65787468402195
H        -1.78596389301620   -3.24795271020446    1.85338052999762
H        -2.58641570174122   -4.39787309119009    2.93989725714017
H        -2.35722516000093   -2.57168891054573   11.00044524391713
H        -3.92049953751380   -3.08577612802040   10.35642756354444
H        -3.13167667132828   -4.04268175938240   11.62410503436671
H        -5.10766037215070   -6.09443865423645    6.45329505442858
H        -3.67207759994655   -7.16127529443844    6.33271280643812
H        -5.09524865009862   -7.98796617355212    8.17078375488251
H        -3.61354021919556   -7.28035295226415    8.84613025468988
H        -5.12705016965558   -6.37777647748575    8.91285727232283

