76
CSD_code = OFUNOT | q = 0 | S = 0 | Stoichiometry = C27H45LaN2Si | MND = 12
C         3.66844991600723    3.44612430120305   12.52048857233492
C         2.97975054715816    4.01258859773424   13.63581153818725
C         3.42753540196400    3.34429359369434   14.81055199989968
C         4.39894803582254    2.37916402046275   14.42921012854812
C         4.56137929886764    2.44774164214011   13.01517224507823
C         3.23958468933593    3.58041312150197   11.08386213154453
H         4.08172744389621    3.50766369439658   10.39715672528379
H         2.72556223977957    4.52270780821208   10.90997064757721
H         2.54544833034950    2.77331498822962   10.83413979110149
C         1.79576501268900    4.94091831586927   13.54310383295517
H         1.53683462825759    5.34026239495051   14.52187339358557
H         0.92491729478218    4.40131258858333   13.16285972140539
H         1.98347642000673    5.77823718805115   12.86777964412933
C         2.85363627732420    3.48208101601601   16.19427213870473
H         1.97026236581545    2.84718727020450   16.30114723703486
H         2.55780995009837    4.50822904377837   16.40985874628550
H         3.58072358984622    3.17237555221480   16.94277978974621
C         4.98365929653682    1.34700812610273   15.35591090398563
H         5.58032761188849    1.80245277268527   16.14924556483128
H         5.61487624225769    0.65030096584668   14.81024390239837
H         4.18113021779215    0.77503909978129   15.82513071433708
C         5.29823813478038    1.45398674286490   12.15414741805752
H         4.65908104344931    0.59191133982753   11.94566118090019
H         6.20200328325292    1.08756532435077   12.63997875330003
H         5.57834687760013    1.89333910669469   11.19748641658406
C         5.64937154955504    6.46044998631115   11.86512089432202
C         6.72865306577123    5.54139550417560   11.69548028658297
C         7.66764055670192    5.77510534084072   12.74465698822293
C         7.17207463471917    6.83238641618667   13.55627730749512
C         5.92220123287399    7.24844036904344   13.02368438638570
C         4.59212348177465    6.80828928419305   10.85008757107465
H         4.83940963931107    7.76146871561511   10.37641178943788
H         3.60626610431579    6.91813597075527   11.30554003483946
H         4.52827415948524    6.05699914130517   10.06748536888086
C         7.00367177570676    4.68828042567766   10.48325863442259
H         6.10226295078049    4.53190460908367    9.89411712539313
H         7.40836183237629    3.71225961142176   10.75778290529018
H         7.73706030228759    5.18012152918185    9.83937131520042
C         9.06281994554944    5.21722759917895   12.82241575977076
H         9.77377953910156    5.93768663692725   12.40964274632015
H         9.15432629765757    4.29648484720290   12.24946915699510
H         9.35357368925208    5.01653790776058   13.85352413773197
C         7.92902108417063    7.49248115760498   14.67459681496944
H         8.64460664288625    8.21380625995752   14.27234838391164
H         8.48694577079119    6.76012714711772   15.25898382207052
H         7.25348707671366    8.02608055412398   15.34098713255991
C         5.15423291213498    8.47762028239955   13.42993412172959
H         5.23630786420134    8.66310623753520   14.50019083014188
H         4.09829900192706    8.38880480213369   13.17588823522349
H         5.54724482340864    9.35378282329339   12.90765520235119
C         7.47605311630222    4.07099530991214   16.77896824797572
H         7.44974209165782    4.46968992438794   17.79384279409068
C         8.42210248568592    2.19721950510238   14.52445169292573
H         8.08734161997508    1.16478495456759   14.50461554616979
H         9.31502211297987    2.25933693585977   13.91035530785888
H         7.64587040524005    2.81281280212867   14.05432856318464
C        10.52288571049041    3.49812372201810   16.44537472930689
H        10.67192681880136    4.35098400021062   15.78965802485012
H        11.26686074104312    2.75106017290614   16.18566152958173
H        10.73309778906434    3.82706227480660   17.45852435759278
C         8.65086742911432    1.28529172833126   17.50179927432734
H         8.80012851594947    1.59515654356140   18.53153492108855
H         9.41641742243544    0.55126792735694   17.26980139568046
H         7.68849410983468    0.78535508985320   17.44680575305662
C         5.48431124687647    6.00788471218903   17.32868448762123
H         6.40236411929780    6.54557855350671   17.62680134374630
H         5.28993084994277    5.24929074836881   18.10849743867492
C         4.34360003389347    6.97851147919389   17.31984545292331
H         4.20388171277958    7.50526735830437   18.25633410916774
C         3.54349922000005    7.20874422800057   16.29554691082836
H         3.67180409519136    6.68887260327734   15.35222232790362
H         2.73760387496937    7.92126437449330   16.35490928947262
N         6.62519367571796    4.48134412861282   15.88428853759108
N         5.66537082060504    5.37116629581941   16.03589190390998
Si        8.75227253542917    2.78227090746766   16.31622319948088
La        5.50606736373009    4.76406194531840   13.91247877185254

