76
CSD_code = OFUNUZ | q = 0 | S = 0 | Stoichiometry = C27H45N2SiY | MND = 12
C         2.85551277497293    3.35711712956740   12.70141613802809
C         2.12027867299721    4.06473073086292   13.70574517034897
C         2.40231671903013    3.45645464992270   14.96040096996643
C         3.32754081314855    2.40385578648480   14.75245924215777
C         3.62848785332123    2.34648842731127   13.36107468429638
C         2.52152581130866    3.31786153140523   11.23366497593869
H         3.40262865211798    3.14918788118519   10.61632689482170
H         2.03416564314830    4.23238269688955   10.90626022563649
H         1.83141730464202    2.49071968149398   11.04579509596689
C         1.03417030337441    5.08363019323051   13.47799567118373
H         1.06199624355495    5.86617196307416   14.23876265653035
H         0.05267655168916    4.60607706449465   13.53113577974005
H         1.12298440518400    5.55001303340035   12.49795513215750
C         1.70570742704501    3.76505685719391   16.25395829918533
H         0.74110142498614    3.25260613711225   16.29275918588742
H         1.52301417255821    4.83337484459868   16.36203818059746
H         2.29793171816885    3.42781176770089   17.10202526793066
C         3.75929241950054    1.43043840029875   15.81291260536810
H         4.19192302411023    1.94350767057776   16.67282861627959
H         4.49615300813639    0.73077634077057   15.42762033476215
H         2.89920171992183    0.85529917519104   16.16156780678314
C         4.32893994476520    1.22354388650098   12.64100408644632
H         3.59802126245241    0.48386458961395   12.30360782674736
H         5.04096959517892    0.71520859231336   13.28797929715466
H         4.86296305552199    1.58299462360010   11.76140612077855
C         4.88355714285134    6.11126054243859   12.05679198181448
C         5.98187695186525    5.18582651447488   12.07233673947722
C         6.84523122978927    5.56973294431957   13.14451815053588
C         6.29058963214638    6.70731033181426   13.78235010075654
C         5.07842656010087    7.03469625907921   13.13080349271432
C         3.96276979934442    6.39365999953611   10.89815688673408
H         4.31790567661272    7.27941338737983   10.36435261811438
H         2.94396829001384    6.60077402516350   11.22719229343909
H         3.94219354999278    5.57015572434712   10.18992129768929
C         6.37369636116851    4.25206781092729   10.95333145784904
H         5.51692084697240    3.98833049403011   10.33632636572714
H         6.82085290493350    3.33074695486243   11.33022412808100
H         7.10906578149088    4.73662154508626   10.30586671527072
C         8.22783800489513    5.04386186117083   13.40733770859805
H         8.96918978552477    5.78211970287192   13.09259783319520
H         8.41411563543767    4.12686699348221   12.85335573497380
H         8.38295732125046    4.84882104781201   14.46843096146193
C         6.96131070654424    7.46225240764218   14.89250081162267
H         7.77043486358231    8.08003244571875   14.49609234399811
H         7.39401611289922    6.77807558004963   15.62300785298734
H         6.25999504620729    8.11610828800545   15.40618344277997
C         4.23560105013956    8.26361300734973   13.33564292192636
H         4.52744022813058    8.79027020549084   14.24136328376299
H         3.17336042520036    8.01791652153926   13.40153422845107
H         4.36473963867729    8.95096725287474   12.49583973814665
C         6.22114521932427    4.12777915990693   16.96427554001220
H         6.12816910801503    4.62459192185402   17.92963601931580
C         7.29485657763498    2.07302253569441   14.94923434391640
H         6.96189245732952    1.03984041855255   14.94278677911616
H         8.24047519741791    2.10904586726076   14.41777958926541
H         6.56496135046885    2.66778054438291   14.38365148206115
C         9.23997115983176    3.35591154174926   17.05802821229030
H         9.53366538819834    4.15626976690275   16.38554538285171
H         9.95774560498018    2.54980446151061   16.94004915981836
H         9.33839765510512    3.73172101264650   18.07197764956693
C         7.12730427508855    1.32489107693188   17.98189510935050
H         7.15221994013493    1.69443886009312   19.00257882048978
H         7.88478762259084    0.55122708844874   17.89957374534404
H         6.16046463188988    0.85587486730604   17.82728144620646
C         4.26586213302314    6.15108702550129   17.20086598139386
H         5.17660433397072    6.69650091948685   17.50490002690860
H         3.99650293183483    5.45698985344008   18.01173159605793
C         3.16192278853654    7.12915131022601   16.96849151654628
H         3.29262725408308    7.75822472899870   16.09755262574804
C         2.08875332098543    7.24363957354736   17.72910797503344
H         1.93823349822417    6.62265565617312   18.59756204940021
H         1.31854196854631    7.96833063743027   17.52473927968017
N         5.46505391450767    4.48104122250795   15.96810698378665
N         4.52550532293998    5.41987298213133   15.96434545153935
Si        7.45708392324203    2.73879392179132   16.73593964384806
Y         4.55757835574868    4.62693754334639   14.02170423567698

