49
CSD_code = OFUQIP | q = 0 | S = 0 | Stoichiometry = C16H24FeN4O4 | MND = 7
Fe        3.40291569528467    1.45085860445531    2.56818563998222
C         2.85167412304596    3.00325987011185    4.01110176865402
N         3.58708147918290    4.13368307271993    4.48548066676668
C         2.85175995215386    4.84699490434821    5.52278466379408
H         3.37584485054748    5.77841934652727    5.73842214247110
H         2.76323569635883    4.26715291473209    6.44925535208895
H         1.85096361834723    5.08057087250025    5.16138403251445
C         4.92405923748636    3.79056480522882    4.94014456657695
H         5.44717206776949    4.71052331666841    5.19987160795401
H         5.45439156741446    3.29873643021452    4.12370307136216
H         4.91712651185065    3.12667095169073    5.81273112916070
C         1.88318319330574    3.11598941087013    2.94652075235822
N         1.57676657397212    4.23132544485573    2.16783216762841
C         0.32050124326600    4.89163977153249    2.46539618600796
H        -0.04228077026134    5.39387390796428    1.56661900779684
H         0.43564907471629    5.64643461854698    3.25563890144101
H        -0.41887335048186    4.16706693210308    2.79595852455755
C         2.64618848624915    5.16195818111138    1.88403563747291
H         2.32366439507645    5.80691924187433    1.06547675956423
H         3.52387935244833    4.60011981769638    1.57215542325284
H         2.91899973269749    5.78018326132299    2.74402787654891
C         1.09919363718486    1.90693886921402    2.93152784319381
N         0.03319938625127    1.60736239728845    2.10529049434725
C        -1.24377657454500    1.26120300715836    2.68675641427260
H        -1.74974169612721    0.52908691229034    2.05362433463262
H        -1.89639188711898    2.14057088829406    2.77650312750599
H        -1.09501822540818    0.83525557525480    3.67562511312432
C        -0.01340750497795    2.11762571783666    0.75728512991104
H        -0.47107117817837    1.35808026231073    0.11759967816225
H         1.00103846306265    2.30594882618976    0.41225245754551
H        -0.59746059036431    3.03867209535786    0.66508042605149
C         1.57078055091721    1.05381439763036    3.99208004598618
N         1.02330327561861   -0.17128456334467    4.31944120569602
C         1.51954941039721   -0.80905479596793    5.52261080959906
H         0.85870751254740   -1.63868630103638    5.77101151923917
H         1.53115851913009   -0.09732758611505    6.34234228244253
H         2.53733889136648   -1.19431265368346    5.38224323156407
C         0.91748680462821   -1.11679095269556    3.22563705469336
H         0.27802587069228   -1.94440384375357    3.52873472875229
H         1.91209331456630   -1.50859103387461    2.96158938453210
H         0.49700572184051   -0.63827617616202    2.34725008658235
C         2.42773466433634    1.89222169280005    4.89298331361808
O         2.71592374113885    1.71672272180723    6.06795611001935
C         4.58603012815448    2.31525117946122    1.56946808380740
O         5.43731957290381    2.73237871748098    0.91896224928968
C         3.18909157517032    0.31081553049141    1.23534865857806
O         3.13907013654888   -0.41660860273549    0.34548922389133
C         4.52569305849744    0.49766150040504    3.60905758232829
O         5.33022069133647   -0.10951945897837    4.15412353267920

