40
CSD_code = OFUREN | q = 0 | S = 0 | Stoichiometry = C15H20ClNO2Pt | MND = 5
Pt        6.16394324836046    7.83585500566373    3.62275054504494
Cl        7.62325145160141    6.56851138460949    2.51339149581417
O         2.78423831043533    9.28001683420677   -1.27143695254305
O         5.04833552241949    9.04788671164753   -1.63964932563409
N         7.43428124040620    7.26986052236360    5.42042046181475
H         7.88091228563605    6.45954759479446    4.97781855605971
C         6.88433002055887    6.83396641137924    6.70234947913456
H         6.42143040960352    7.69697576472102    7.19227591746525
H         6.10913887095876    6.08564946949348    6.51458597883185
C         7.96760161559498    6.24956944778358    7.61098445152367
H         8.38282197201476    5.35219293515310    7.14545308934093
H         7.52836301892652    5.95935516399113    8.56664014650677
C         9.07921461621535    7.27448540253482    7.82478199134692
H         9.87890262336980    6.84074650643234    8.42749416481095
H         8.68079129305499    8.13508719964619    8.36801334432417
C         9.62528851535944    7.73412085755017    6.47462481416658
H        10.09836661491218    6.89227439337027    5.96322741170167
H        10.38002033666733    8.50921108417473    6.61372163352539
C         8.48502850759441    8.27343600062290    5.61082664715643
H         8.04456662259351    9.15141486585418    6.09391400011569
H         8.86007996531072    8.56986407425306    4.62528823368383
C         5.18775067771167    9.44630536927415    4.59931882900273
H         5.00501679708959   10.26088938490215    3.90576045534418
H         5.69669246715090    9.72796588414256    5.51449180414021
C         4.33794544257201    8.34223270531037    4.59810331973061
H         4.20935579026210    7.77168693716827    5.51749029044119
C         3.21548036802886    8.21584404012450    3.59292016048602
H         2.77076046711041    7.21825647357362    3.65904901850862
H         2.42821582689453    8.93908601673187    3.82793159388460
C         3.73445235006428    8.43836096386435    2.19099004190292
C         2.86149089452429    8.77034849972896    1.15428538840934
H         1.80320961798339    8.88798036049534    1.32175650561807
C         3.40796734703622    8.94685649552861   -0.09310026729419
C         4.77533501981783    8.80572675800468   -0.31441115758885
C         5.64539727963914    8.47563043144978    0.69859254880072
H         6.69844710324175    8.36494482365110    0.49579382004606
C         5.10429747867953    8.28036609807334    1.97037876306827
C         3.80599921712657    9.32696061226360   -2.24370684232714
H         3.60063983501532    8.58058387945762   -3.02933241018933
H         3.83433895846474   10.33034663600692   -2.69928794617253

