39
CSD_code = OFUSOX | q = 0 | S = 0 | Stoichiometry = C15H18CrO4Si | MND = 9
Cr       10.31977022240284   -0.66895556989272   12.16238708706722
Si       13.27071356404617   -0.66716033997202    9.18693773231827
C        13.06284595911779   -2.13872404175983   10.44075914707397
O        14.06102920625922   -1.85770312175461   11.45052447749762
C        13.52235224030747   -1.96674159533960   12.75369051083645
H        13.79431225054414   -1.06806632847592   13.32152585251575
H        13.94921291024830   -2.84275555803576   13.27172874399965
C        12.04181415177076   -2.11744312977673   12.57109366644175
C        11.04497768171758   -2.35482843521206   13.52664342749147
H        11.28436405608186   -2.39168040282270   14.58223789078990
C         9.75318506549914   -2.64838797728662   13.06892575947984
H         8.98289263694167   -2.91650103226461   13.78269076300814
C         9.47128534587037   -2.71643940303915   11.69241903816130
H         8.48744440834057   -3.02636204313447   11.36204881324495
C        10.47324904704515   -2.44740894751634   10.74902468263143
H        10.27461425859979   -2.57345071806249    9.69173099741811
C        11.77726613302890   -2.19265274312721   11.19843398248887
C        13.33347409907073   -3.51329678328298    9.81466349478631
H        14.34778877071554   -3.54165244407284    9.42988916450454
H        12.63942890160362   -3.69466038589082    8.99799751673872
H        13.22290245195178   -4.30669635857689   10.55486239451670
C        14.91704828820241   -0.97667629212574    8.27633382910180
H        15.21410633628730   -0.09168908144882    7.72303847360965
H        14.84558669700945   -1.79509073945713    7.56644068387729
H        15.71196185564055   -1.20913299388126    8.97773650187513
C        11.82074973571419   -0.65804961124093    7.94542401646190
H        10.89417391116865   -0.34532849407469    8.41695595130961
H        11.65686218597143   -1.62689148609712    7.48179402053650
H        12.02604970423505    0.04782564144844    7.14771480092427
C        13.35517868279244    0.94515693811651   10.18258613502614
H        13.50384716051804    1.79419765315259    9.52356383960603
H        14.17966460027040    0.92662447638177   10.88819073227047
H        12.43970385625432    1.11952441285333   10.74284677740312
C        11.16817594659676    0.75366347485895   12.91784875741694
O        11.63500040430862    1.69131002212112   13.40866149343710
C         9.92673715012955    0.55435389915149   10.87463174508927
O         9.62187091613337    1.38817382467948   10.13043921501336
C         8.88377923520066    0.17978848894040   12.88637392287340
O         7.99767997240398    0.78460722591688   13.31730396115880

