98
CSD_code = OFUSUF | q = 0 | S = 0 | Stoichiometry = C34H54N4O3Si2Zn | MND = 5
Zn       -5.74119639597175  -11.04722736706678   -1.88645808890076
O        -5.68122309606906  -13.08162265645367   -1.14637908595111
O        -7.85175724642591  -10.95328171425806   -2.95573684383685
O        -5.15675701653583   -9.89768804503707   -0.04972545557890
N        -7.84348132444451  -12.59022410116156   -0.66739838448501
N        -8.39158533624429  -10.28403639356692   -0.86397260489432
N        -6.89465138041745  -11.04144843169080    0.86796699755255
N        -4.72839211982553  -10.51488197261799   -3.37299151986937
Si       -4.02651719656134  -11.84142399610160   -4.22779749875782
Si       -5.06158107939095   -8.95170169579770   -4.01837274757324
C        -7.40143117096109  -11.23512512866855   -0.46108617252270
C        -6.85678157559959  -13.47601965658567   -1.06854755821635
C        -7.27095943654288  -14.80255307293413   -1.36935519538487
H        -6.47775464263138  -15.46024369880138   -1.68028958359581
C        -8.57859206600923  -15.19762315156619   -1.31770581858449
C        -9.04155786363688  -16.60058123580912   -1.65869434211420
C       -10.02728157320308  -16.52230958793580   -2.83298894580005
H        -9.55233773892638  -16.04891938017281   -3.68904905127186
H       -10.91400025964880  -15.95039584036468   -2.57416991974390
H       -10.34055327039544  -17.52323399066777   -3.12068246596153
C        -9.73647851210593  -17.20492822684518   -0.42994836816943
H        -9.04707061521503  -17.24407418961014    0.41078636383103
H       -10.06628415954438  -18.21711938521792   -0.65182357460023
H       -10.60477355862349  -16.62225234828864   -0.13465536067754
C        -7.88294374289886  -17.51561257387750   -2.05998088422639
H        -7.37733039528887  -17.13702221065218   -2.94430984791451
H        -8.26726918023741  -18.50712952036686   -2.28927185530749
H        -7.16255304819977  -17.61200923779685   -1.25151068866806
C        -9.53687686145805  -14.22662729039257   -0.93790670646843
H       -10.58512093448366  -14.46839267661609   -0.89322040839504
C        -9.14249131356027  -12.96414346403934   -0.63160074852913
H        -9.85517058821073  -12.19936199789856   -0.35394107639332
C        -8.52023917325370  -10.18706960132177   -2.25055567524936
C        -9.41122605264795   -9.19147712740426   -2.73431561872584
H        -9.48327437840163   -9.13638070121761   -3.80647815648781
C       -10.07233918899319   -8.32592400354993   -1.90668515012155
C       -10.97843119591209   -7.22011304012616   -2.41308898385402
C       -11.10283859699370   -7.22063328890428   -3.93809428434383
H       -11.76854188586277   -6.41768673588197   -4.24741368658269
H       -11.51761668142606   -8.15976070692473   -4.29606402447436
H       -10.13617149206473   -7.05663503251685   -4.40687480599912
C       -10.38821297884627   -5.87189037374568   -1.97573142650723
H       -10.99775454643209   -5.05719468375278   -2.36000404867807
H        -9.37852421228720   -5.76257760679876   -2.36489736876792
H       -10.34822613401976   -5.78613068258850   -0.89331469197047
C       -12.37915093137644   -7.40050765008930   -1.81119953515171
H       -13.04173304314575   -6.61834359549517   -2.17439199871822
H       -12.35831741493728   -7.34967074694779   -0.72606553906404
H       -12.79247229012734   -8.36400899205146   -2.10210565619744
C        -9.86225435159822   -8.46342977195486   -0.51402770316179
H       -10.34315854808304   -7.80400441858880    0.18797345053426
C        -9.03530512267519   -9.43230712087641   -0.03753848535487
H        -8.85240569923428   -9.55138280108921    1.02113990477899
C        -5.68672017732235  -10.35975717203657    0.96488218876807
C        -5.13598077465964  -10.23583623223248    2.27677637057642
H        -4.20330932177756   -9.70038474955278    2.31808391819061
C        -5.71969562790868  -10.77976999586236    3.38333042035520
C        -5.13890137266504  -10.66478902271612    4.77927580332364
C        -6.15462643034979   -9.94379769343399    5.67725259254689
H        -6.36284359520894   -8.95003450058344    5.28669089254041
H        -5.75238815552288   -9.84111554288778    6.68227709977745
H        -7.09143535308482  -10.49064547026875    5.74094269170506
C        -3.82677467483655   -9.87844989613391    4.80232699186715
H        -3.97275608152673   -8.86363831433304    4.44116703791528
H        -3.06960549121922  -10.36706225110945    4.19476639623689
H        -3.45601696879541   -9.82281748497038    5.82344945513291
C        -4.86899196790807  -12.07545268836471    5.32158646732649
H        -5.78404991300697  -12.65523997644002    5.40489199321489
H        -4.41702638603148  -12.01172930057305    6.30862932756074
H        -4.18556649143836  -12.60617245856338    4.66271581961135
C        -6.93121624330926  -11.49567218196912    3.19728411598738
H        -7.43372370280395  -11.96214472434103    4.02738104463842
C        -7.47123947871458  -11.60375724080985    1.95895294792620
H        -8.38846833229275  -12.14942053338820    1.78608776462769
C        -3.02708574036864  -11.30706916275326   -5.76050296285375
H        -2.18001627123296  -10.69189461731736   -5.48343016918203
H        -3.63677470013682  -10.74248383388360   -6.45532346790220
H        -2.64628745457021  -12.17741026537020   -6.28448733532796
C        -5.37624068309825  -13.06367917242156   -4.82700655888847
H        -5.99148097822444  -13.37603031128132   -3.98903763872116
H        -4.95437092325359  -13.95345738959427   -5.28502949338336
H        -6.03235000734016  -12.59187624214607   -5.55111077081668
C        -2.83887396614800  -12.76135568328789   -3.04580562092083
H        -3.37201310494208  -13.09002335839050   -2.16020136499369
H        -2.02930881163883  -12.11490861606396   -2.72316794330450
H        -2.39893308328253  -13.63455000497790   -3.51770886093019
C        -3.46641818114842   -8.04577413351184   -4.55355289639727
H        -3.10625659512263   -8.40892746670784   -5.50807695340167
H        -2.67580283903245   -8.18805010900460   -3.82576850059922
H        -3.63958193738489   -6.97888778175489   -4.65303513719857
C        -5.87686500047568   -7.87672969271774   -2.66385077171054
H        -6.92793545118763   -8.12301921943741   -2.54820260156375
H        -5.81392958853222   -6.81737736805471   -2.89388295173183
H        -5.38880643100440   -8.03967403716486   -1.70966619547561
C        -6.26879809667322   -9.01577581971594   -5.50548530003171
H        -7.11992683685895   -9.64276058101516   -5.26135806602635
H        -5.78801837537659   -9.44383882563433   -6.37869564337807
H        -6.63753978473282   -8.03171595641147   -5.78021320976472

