39
CSD_code = OFUSUD | q = 0 | S = 0 | Stoichiometry = C16H18CrO4 | MND = 9
Cr        7.20377352692058    6.70750627302581   11.39077851338097
C         9.26002706301105    8.13318903737561    9.01908475251893
O        10.06454307524554    6.96708625989670    8.89048093857996
C        10.37692182802079    6.41317644734987   10.16649850957736
C         9.42239265953716    7.07953314204559   11.11648219401838
C         9.19581755852344    6.86780935877678   12.47345768954139
C         8.27322244925730    7.70052757541393   13.14070491882593
C         7.56285923679405    8.67744881344924   12.43339810672047
C         7.79381191783655    8.89900067709067   11.06053699949399
C         8.70791736509593    8.06832577283566   10.41457910667364
C        10.08951411138239    9.41584307373263    8.81987849119680
C        10.69402535706226    9.47412738230984    7.42071933392039
C        11.58311864455662   10.70028696020509    7.23083843608324
C        12.18097084659364   10.74897176044789    5.83044856597359
C        10.22092211240624    4.89597328393778   10.11386190835787
C         6.72297419990332    5.94936439702576    9.80584453670138
O         6.36853105990803    5.43545748922049    8.83428123923491
C         6.91003905861977    5.00569017402502   11.96889846083752
O         6.67163224860696    3.91956026964427   12.28321858215437
C         5.39398728993738    6.78656806623198   11.59272620350024
O         4.24352681451758    6.76467748360209   11.69263815736095
H         8.48410507780117    8.07957506192946    8.24459437670003
H        11.42267667306913    6.66415961073663   10.42672509996453
H         9.78870335859537    6.15303255639502   13.03242386321680
H         8.14569357734605    7.60914054352342   14.21197778442563
H         6.89601622983138    9.34253276189731   12.96997319318029
H         7.30928023647185    9.71596148689809   10.54122790742763
H        10.88861893877826    9.43704918798474    9.56627940591259
H         9.44427659183851   10.28131150143637    8.98806333082209
H         9.88864490433043    9.49092454364463    6.68309429015537
H        11.27570593457726    8.56590532895829    7.25424569496701
H        12.38908233855659   10.68209730594192    7.96838506374431
H        10.99504073881462   11.60458439959599    7.40641985965811
H        12.81314348451801   11.62611963709591    5.71391441101277
H        12.78343913568112    9.86306824592497    5.64318731627077
H        11.39362773304429   10.79080574061248    5.08126067178158
H        10.85414024222847    4.49530619157535    9.32781239236127
H         9.18432003885881    4.64336073801234    9.89685112623920
H        10.50775634192201    4.45434146019590   11.06430856750772

