56
CSD_code = OFUWUI | q = 0 | S = 0 | Stoichiometry = C25H24N2O4Ru | MND = 5
Ru        1.08452442580080   14.56411614376992    0.87224346561836
O         0.76269876845594   11.61518022322321    1.46237020762690
O        -1.85418076157394   14.56976008706386    0.13718629260788
O         3.24000009608070   14.56737367708915    3.00095351527812
N         2.54905077032292   13.49443154550499   -1.79039231559744
C         2.15848289526195   14.56257084792275   -1.06333827611345
C         3.17046428825266   13.88633158848166   -2.94735185028799
H         3.55194675535354   13.18078301542794   -3.65683697795395
C         2.35717618753723   12.13331282702334   -1.42252878547597
C         1.20488881848529   11.47050699726043   -1.84365732012416
C         1.04606719313744   10.14027694405529   -1.48929781988379
H         0.15294373526557    9.61700248681067   -1.79852617035866
C         2.00082099528731    9.47280647624896   -0.73484020052690
C         3.13989909399933   10.15844012857114   -0.33520872102798
H         3.88476556271664    9.64863225370975    0.25842555451003
C         3.33741516156640   11.48862354062814   -0.66834926569881
C         0.16212204347618   12.20075495871157   -2.63360583164785
H        -0.22956849338227   13.03457022333077   -2.04729400809365
H        -0.66115526847382   11.53889801746756   -2.88670908347179
H         0.58121436434407   12.60580417580942   -3.55480562337087
C         1.79097739267663    8.04811106828294   -0.32703364654693
H         1.15161966903030    7.52854170672870   -1.03652909608502
H         1.30733897359317    8.01805584084466    0.64947537207837
H         2.73911761848604    7.52120910141241   -0.24894101546601
C         4.55241426016288   12.23795933410862   -0.21355469925898
H         5.22698777634207   11.58223415230895    0.32949095564963
H         4.25601769379762   13.05580536225836    0.44669832874932
H         5.08765151784640   12.66749299754616   -1.06042467108437
C         0.91688193168893   12.72237969417502    1.17883201534817
C        -0.72353447464072   14.56583073873534    0.37656240397014
C         2.44858468853618   14.56611065870448    2.15873686583810
O         0.75285773415123   17.51343407104728    1.45427219091447
N         2.54940995533159   15.63076487101687   -1.79015400703297
C         3.17060879743839   15.23896266216048   -2.94723813718378
H         3.55233023269740   15.94452223848246   -3.65658482159093
C         2.35681806741145   16.99173106971492   -1.42211155437265
C         1.20585390862821   17.65479650282540   -1.84645632130689
C         1.04583863216607   18.98478198480905   -1.49171605447744
H         0.15366252215131   19.50820860069406   -1.80340388751427
C         1.99797174106907   19.65163169255729   -0.73343369438506
C         3.13563896638319   18.96565361543809   -0.33033002103363
H         3.87822291052128   19.47490626540705    0.26663369096961
C         3.33441486460268   17.63577868651313   -0.66391599386919
C         0.16517584051283   16.92473598057320   -2.63934748140420
H        -0.22693760708210   16.08993044703825   -2.05473405666868
H        -0.65815961028820   17.58626017743561   -2.89308408071778
H         0.58616844353980   16.52108838677291   -3.56028654126910
C         1.78666375182064   21.07585355734851   -0.32476451162469
H         1.14645751219994   21.59512440636500   -1.03369399722632
H         1.30342420447056   21.10474982819067    0.65197609575677
H         2.73425421714308   21.60376444763178   -0.24670016338899
C         4.54744678576402   16.88596292387533   -0.20470834577967
H         5.22088942157786   17.54167900393420    0.33974359354323
H         4.24817329050760   16.06921845467311    0.45566842372793
H         5.08487226587715   16.45479474263190   -1.04932446402438
C         0.91230947197959   16.40605856965161    1.17434454076148

