65
CSD_code = OFUWIW | q = 0 | S = 0 | Stoichiometry = C26H32N6Zr | MND = 6
Zr        3.00340113418698    3.12391534567090    7.62609629081558
N         2.80465529493630    4.85935616127444    6.50506338459806
H         2.26079876450603    5.69867261109648    6.72922379318645
N         5.04686869244451    3.15111748909630    8.15156773410522
N         3.23221179075732    4.57810562704999    9.58174951331562
C         7.29619230875075    3.08610947055839    8.24864817318791
H         8.31084164865966    2.75559328786298    8.13478739163263
C         6.86879958822810    4.28086613429800    8.85848195331442
H         7.49015859893402    5.04106145313960    9.29351907766877
C         6.42049471744809    5.76968396437051    4.62811680520779
H         7.36806619034997    5.99111486451496    4.16179874424603
C         5.97707746357441    4.45769229961405    4.73048453708969
H         6.58166294181235    3.65753749412354    4.32718832000056
C         5.62419723940663    6.79234421023368    5.11440573178853
H         5.94770095794800    7.81994699289938    5.02183561547720
C         2.15476602276135    5.53003789325367    9.84755751902882
H         2.39487994360098    6.17313961189955   10.70834134431256
H         1.22228883043418    5.00193387734575   10.05102467045772
H         1.99982349522555    6.16720038088970    8.97642468006770
C         6.16010824869498    2.43255469174328    7.83218412768837
H         6.07851181349408    1.48287993612260    7.32456383754830
C         4.41709733579558    6.51426115187343    5.72278869470209
H         3.79870087491291    7.32573636462413    6.09278948296677
C         4.77108328238218    4.16069237232335    5.32888098092293
H         4.40050364897393    3.13289504867658    5.36278116542695
C         3.46619778391472    3.73172322899666   10.75978417245683
H         3.31581886969060    4.30544169944906   11.68863265593436
H         4.50769953839836    3.39391372744774   10.73647603356693
C         3.96812329882712    5.18895028040167    5.87317617459930
C         4.48033317893971    5.29070120656655    9.24508111858541
H         4.26591492605610    6.02147071346598    8.45375372637835
H         4.86566928145214    5.84664082592241   10.11757993813262
C         5.49337986258286    4.28895069186666    8.77006422883376
N         3.20214830573895    1.38847128511542    6.50506689663285
H         3.74600150446587    0.54915333223101    6.72923023234020
N         0.95993261844737    3.09672262430878    8.15156434230484
N         2.77458827880129    1.66973751710416    9.58175844182362
C        -1.28938644891503    3.16176921405524    8.24870115082944
H        -2.30403187271134    3.49230358587990    8.13486621178944
C        -0.86200389906599    1.96697322439011    8.85846322740201
H        -1.48336646727139    1.20678244173926    9.29350395837948
C        -0.41369349038416    0.47815332437670    4.62811856448886
H        -1.36126578285280    0.25672571269302    4.16180059514918
C         0.02972992976544    1.79014321877090    4.73048285915997
H        -0.57484757948313    2.59029878805266    4.32717615314773
C         0.38259899521038   -0.54450913143931    5.11441094150627
H         0.05908643415369   -1.57211026261922    5.02185157767228
C         3.85203296264864    0.71780356953301    9.84756477411187
H         3.61191847078781    0.07470392095592   10.70834978274005
H         4.78451151233738    1.24590625167913   10.05102917442300
H         4.00697209172471    0.08063896090309    8.97643266181756
C        -0.15330615670085    3.81526852618985    7.83214220755871
H        -0.07170661761140    4.76493060497069    7.32449959559224
C         1.58969912655679   -0.26642972992072    5.72279555301728
H         2.20808940198262   -1.07790699254672    6.09280224280287
C         1.23572577834243    2.08713901185655    5.32887789930515
H         1.60631239908902    3.11493391864117    5.36277065554085
C         2.54059755997131    2.51611967413021   10.75979062810226
H         2.69097320212143    1.94240110761709   11.68863991422286
H         1.49909598240369    2.85393024258163   10.73647712417658
C         2.03867994862836    1.05887946812089    5.87317850937598
C         1.52646273959081    0.95714760267954    9.24509173741365
H         1.74088454194796    0.22638288743413    8.45376201447701
H         1.14112154722360    0.40120132466394   10.11758404473439
C         0.51341741496039    1.95889366717498    8.77006471072539

