74
CSD_code = OFUXAP | q = 0 | S = 0 | Stoichiometry = C31H36N2O4Ru | MND = 5
Ru        4.71564494872516    4.71119483647791    2.16400892446342
O         2.34883935654012    2.84463785985110    2.38716509065515
O         4.19603991911985    4.65443464328273   -0.81897998091922
O         6.11621186219596    7.35341170672259    1.72612953509797
O         3.83699428811871    5.89769316267437    4.80804461545441
N         6.38419734564709    2.00634391073728    2.75317864394659
N         7.73212235399839    3.66192898494215    2.64999774383530
C         6.42108118034710    3.34411502953539    2.56158973988638
C         7.64293821957718    1.50170535018502    2.95842916500258
H         7.81626124362396    0.46119169704542    3.14083033110044
C         8.49554519996205    2.54807551640279    2.88996291872852
H         9.56103457292057    2.59698273075517    2.98118621565237
C         5.21407405411671    1.19491467502383    2.77107867081142
C         4.71462082886951    0.69324335363700    1.56499303456931
C         3.61215537147457   -0.14750333528542    1.61861896196095
H         3.20642020255679   -0.55733879890989    0.70802916383375
C         3.01791452763308   -0.46109927976985    2.82652115718651
H         2.15523035180590   -1.10999542528973    2.84719936895450
C         3.51615292114995    0.05778482161233    4.00489712319934
H         3.03528454528229   -0.18695589191254    4.93908803248721
C         4.62647092216948    0.89169025455633    4.00078200326670
C         5.37417700910631    1.03862810289913    0.24936458357674
H         5.89844394592243    1.99527662589948    0.36530755897775
C         4.36071052252443    1.21426021089274   -0.88119332661412
H         3.95008058322437    0.25975949331106   -1.20085620145107
H         4.84422491382443    1.67600189159218   -1.73897847506100
H         3.54457615498072    1.85865134898816   -0.56215445092364
C         6.39968470932734   -0.04015261329225   -0.11410990729129
H         7.17430905303368   -0.11498088198011    0.64647680441445
H         6.87268082427465    0.19817888329280   -1.06407579264108
H         5.91194205336162   -1.00859689028784   -0.20367998200279
C         5.16055740909571    1.45506902718242    5.29706717325799
H         6.02095027789948    2.09802218153618    5.08526133417994
C         4.09792994884545    2.31948026841370    5.97784479779599
H         3.76377744988810    3.10294716213356    5.29937687051279
H         4.50945384573784    2.78668671906999    6.86981877692644
H         3.23512242250679    1.72574510237348    6.26750556068037
C         5.63111339666864    0.33118924009092    6.22334328235067
H         4.80309257619628   -0.31538663592077    6.50154671395764
H         6.05797916837229    0.75060085418903    7.13160974634160
H         6.39015866423108   -0.27644664975975    5.73425804086191
C         8.28853697684860    4.96593486213582    2.51637918760621
C         8.80300883868687    5.35482092393395    1.27818085552562
C         9.39320760073978    6.60808647181243    1.18184322085900
H         9.79415028753056    6.93868511315762    0.23644688978607
C         9.47123213823206    7.43869566997701    2.28187910952783
H         9.93474470673480    8.40954844974415    2.19069371284059
C         8.95063963865338    7.03824402279233    3.49808624899477
H         9.01459255109955    7.70233487903185    4.34466753055336
C         8.34182170187686    5.79941211872262    3.63830660740748
C         8.71888913643452    4.45675084062690    0.06606064007965
H         8.18421672840070    3.53894631350958    0.33244002517652
C         7.92751591606602    5.14041130466647   -1.05047096952213
H         6.94425509707976    5.43377615208382   -0.68578882422503
H         7.79601670992698    4.45865759441249   -1.88777833394581
H         8.43995299455149    6.02939275765637   -1.40861367761015
C        10.11885554672215    4.06517144611107   -0.41352413144930
H        10.68312584435902    4.94242379748255   -0.71985813497795
H        10.04704220294217    3.38966199988421   -1.26303476867420
H        10.67046333903848    3.56385900659792    0.37991418853386
C         7.77572065336658    5.35005785094456    4.96610091704296
H         6.99875505583680    4.59953000454613    4.77548052925604
C         7.11618219358829    6.49447394994443    5.73515707952061
H         6.53220942390700    6.09345450188848    6.56038705248329
H         6.44741745064186    7.05284644157173    5.08403815995644
H         7.85552470932171    7.17660298023864    6.14741731954443
C         8.88157743236509    4.70644833988494    5.80901063948464
H         9.29945728155302    3.83617054392654    5.30677712072350
H         8.48322727256602    4.39011194435713    6.77042173632748
H         9.68438954355105    5.41952770581702    5.98478720907827
C         3.29304465532528    3.50344532538547    2.31884604412888
C         4.44175367653193    4.63837036876121    0.30930738831856
C         5.64406365829881    6.31522341694943    1.89791237233895
C         4.21320989242187    5.40993365887696    3.83114348831280

