91
CSD_code = OGAFEJ | q = 0 | S = 0 | Stoichiometry = C33H45Cl2N7O3Zn | MND = 5
C        17.54036448429909    2.39836028521317    4.27495990833278
H        16.93163494897064    2.07477391911779    5.12684683830963
H        18.57785444567433    2.50708391367412    4.61908578622303
C        17.45338315709649    1.31956288901353    3.22799588334019
C        18.39270538288384    0.30863182620937    3.16491313040002
H        19.22988435421928    0.29990343932609    3.84467618065934
C        18.22071033422597   -0.69204805913969    2.21425506509689
H        18.93114930348175   -1.50117703788803    2.14126493971061
C        17.14179198405842   -0.63965543243082    1.36329837148335
H        16.97098340414238   -1.39425758046275    0.61523675674038
C        16.23766458149209    0.42910889521149    1.47415943735400
C        14.67017441287017   -0.31114245257267   -0.28557379277772
C        13.40066843265579    0.16587998799567   -0.98495288016221
C        12.99887342680834   -0.89174714330685   -2.01679882481336
H        12.08493631898018   -0.59175980617174   -2.52277111041587
H        12.83504486510373   -1.85133017527950   -1.53331116272809
H        13.78509384743986   -1.01816386234704   -2.75676745362245
C        12.28152522197804    0.31042406959669    0.05265322865347
H        11.36747252281830    0.62781469822306   -0.44333073010313
H        12.52023881428584    1.03884561779114    0.82185071002756
H        12.09256517337733   -0.64439520693004    0.53891107670297
C        13.66248396340303    1.49547769151398   -1.70045010892431
H        14.47379666445502    1.38436490715145   -2.41697943664071
H        13.92174477331952    2.29715957519412   -1.01525077780759
H        12.76823478416021    1.79435989581093   -2.24237994225479
C        16.68792366177129    4.60763976667125    4.83299433697211
H        16.28062653313873    4.06216154516902    5.69094861076926
H        17.58492923388848    5.15165998381707    5.15045530530825
C        15.63167192086743    5.57502155757063    4.36829724416487
C        15.69781341374043    6.92023098563110    4.66996280476237
H        16.53734135440950    7.31251982931205    5.22060092059683
C        14.66220217474804    7.74368365486536    4.23955517217287
H        14.68686716738285    8.80313967664380    4.44465970840851
C        13.60126257217508    7.19735973480413    3.55683442138232
H        12.77651566317671    7.79744510135707    3.21332103337486
C        13.59708333204902    5.81744403147484    3.29480925666249
C        11.46255925339894    5.74250791458314    2.05900454347881
C        10.55588718155827    4.72728403434420    1.36820287078860
C        10.07205318876075    3.67913865415681    2.37695463596853
H         9.32306617308915    3.04724706979691    1.90503387450333
H         9.61558902851761    4.16211664877602    3.23862227724650
H        10.87878812825749    3.03814558886403    2.72132358935932
C         9.35191115726882    5.47815031019428    0.79384662654744
H         9.68141326713135    6.25006965401123    0.10329513979632
H         8.78908559777906    5.95774084031243    1.59071837462095
H         8.69742159461046    4.78937493923426    0.26602540699310
C        11.33455643164984    4.05955379761154    0.23021626682239
H        11.68806251941200    4.80405663777243   -0.47961078900994
H        10.68505711626160    3.36269120840144   -0.29374960470566
H        12.19455786694957    3.51074277190952    0.60113257312691
C        17.86276184783938    4.25916742233170    2.75389690813556
H        17.39288632122660    5.19426234219674    2.44296293093748
H        17.89679925259027    3.58988581711266    1.89286020065898
C        19.26278326579471    4.53794800150706    3.23468212596316
C        20.31526117106236    3.68059658354556    2.94006281535260
H        20.15071078727309    2.80408641176601    2.33241218403242
C        21.57632072226508    3.98404178700349    3.43550552187679
H        22.41459769596629    3.33752105726651    3.22291123239172
C        21.75720172693833    5.12001028738958    4.20041097377110
H        22.71688520493346    5.39218580565458    4.60340722896361
C        20.64172814151752    5.92425849759781    4.43576769046154
C        21.70677791436380    7.66303590098895    5.86049250227984
C        21.35343299659511    9.00885845995998    6.50596711635303
C        21.19998527696284   10.04524963462020    5.38528925985349
H        22.12545520905410   10.12834447372437    4.81999982924024
H        20.97142042993069   11.01860340571656    5.81375760587499
H        20.40098489577505    9.77854543612827    4.69621544676939
C        22.50678195431214    9.41420748391580    7.42514336954098
H        22.60291899716158    8.70674077276695    8.24493093487994
H        22.33384924343119   10.40629036302140    7.83418738118259
H        23.44300327042972    9.41772272350270    6.87387982623201
C        20.06083973523217    8.90994459201448    7.32480383142853
H        19.17750915834860    8.81727271879853    6.69567815096361
H        19.94340337462121    9.81193824792880    7.92135721790838
H        20.09884272003617    8.05857524127550    8.00131828821553
N        16.99257794265852    3.65099040857244    3.77558784977841
N        16.40593073537682    1.37753316323713    2.40669882115889
N        15.15350846630035    0.57573880034432    0.65639154641333
H        14.65928274506166    1.45653397828920    0.76756249549173
N        14.61804202590760    5.04184024479988    3.68668864598491
N        12.57250080936798    5.17977108532199    2.65528583794014
H        12.66557620577355    4.16543246553028    2.61364018791515
N        19.43091572218291    5.63234486509438    3.96855484982142
N        20.66838303584447    7.10216807985378    5.16453534316704
H        19.77719217991658    7.57909289422939    5.16046709005392
O        15.19877959171630   -1.37243275143670   -0.52004502552793
O        11.23331189060723    6.92935205132416    2.07919987948437
O        22.79932072428154    7.15440511474636    5.94125327890878
Zn       15.13448818935485    3.13475002704915    2.75856510586924
Cl       15.08619291819613    3.88741427762203    0.65150310238491
Cl       13.21843036932844    2.03247103639058    3.21011472502165

