32
CSD_code = OGAJAI | q = 0 | S = 0 | Stoichiometry = C9H17Cl2N3Pt | MND = 4
Pt        2.04398206356601    7.68574679954373   12.79994527456773
Cl        1.35203791332407    9.80238978849768   12.47668162788597
Cl       -0.06530426699430    6.89349552305726   12.71799098326443
N         3.99953657174460    8.21302624297522   12.84630177500587
N         4.85522760801975    7.46344837382403   12.13229266355932
N         2.61968964072692    5.58901545212675   12.93178250163844
H         1.82982327263466    5.26988871712450   12.36438810252069
C         6.13270270643337    7.85059497702087   12.35646376712532
C         6.07128320921463    8.90025159260536   13.24668539237936
H         6.89454415726660    9.45856587844988   13.64154367133386
C         4.71099360856365    9.09541385435852   13.53385443693660
C         4.09797997564901   10.07899067941080   14.45808156107194
H         3.02659977240249    9.89787114034037   14.52495541650683
H         4.25138860664835   11.08945297138964   14.08449395307179
H         4.55074237608013   10.00483725153091   15.44520011862402
C         7.30578400974194    7.20817393848321   11.71088664056314
H         7.36422641671252    6.14901327537048   11.96172801235543
H         8.21429401809151    7.69460299036803   12.05328747229826
H         7.25302785598505    7.30257109171332   10.62651619714971
C         4.36844571450207    6.35461580481680   11.35831444850465
H         5.17060804054746    5.99670679554329   10.71214843032351
H         3.53066752608824    6.70050071345579   10.73660677539129
C         3.88113310292613    5.22727346981234   12.28533910753406
H         3.77716591410731    4.30477419299862   11.70144011831570
H         4.64053464671519    5.05963628913155   13.05471576207126
C         2.44908034675878    5.04748019368977   14.28481064671334
H         2.80094224931852    4.00794180319143   14.32879384328080
H         1.37927184215154    5.06419837988552   14.50335684023892
C         3.17059544930851    5.90263372671653   15.31855756760816
H         2.98911354826695    5.51161115755858   16.31566346410961
H         2.78299076065830    6.92319597722719   15.26886356015906
H         4.24549134283973    5.92538095778225   15.14910986789117

