70
CSD_code = OGAMOZ | q = 0 | S = 0 | Stoichiometry = C36H24CoN9 | MND = 6
Co        2.67137037901304    3.09940478816841    6.49680107460980
N         1.86303540412818    5.72581047887347    9.36530584152301
C         2.26832811888018    5.16508239781532    8.23592217771431
N         2.01648484994469    3.82753202555350    8.12607269513527
C         0.88122555761465    2.30055742404162    9.78630034785310
H         0.93236491982047    1.38713764961978    9.21645603372676
C         0.29890458864684    2.32543636500510   11.03103368926727
H        -0.10847932468568    1.41241351015581   11.44017889589528
C         0.21499532893528    3.50288935750514   11.78967462992650
H        -0.25399802959582    3.46213908182098   12.76211561273231
C         0.71064610875131    4.69482819882308   11.32266228748615
H         0.64821005585191    5.60629635075770   11.89622239989436
C         1.30814584653037    4.70115124345822   10.06141237361572
C         1.39792177583960    3.49725594957773    9.29055860091683
C         2.92238101667563    5.79136774751746    7.12996901979419
N         3.25348336457017    4.94258962220186    6.13415388697311
C         3.86746528412876    5.43679707942821    5.06133039558761
H         4.12977500853038    4.73673665333034    4.28072054332211
C         4.17739568108725    6.77622291899324    4.92769526037011
H         4.67649464884818    7.12267345192485    4.03734814404876
C         3.83888583966656    7.65649418836061    5.95278091044009
H         4.07137112961882    8.70738427163763    5.87112770051592
C         3.20514041718404    7.15828811219836    7.06856556738374
H         2.91327389523992    7.77395265044679    7.90327094136772
N         2.76579469658749   -0.60692159236072    7.86006824040391
C         3.07346100113521    0.64845288749162    7.58272383283547
N         2.12550981816286    1.34074578396844    6.88620305977401
C        -0.12638084903055    0.52178051067309    6.06499664872308
H        -0.47194548703937    1.42754805655546    5.59272939081780
C        -0.91498283392415   -0.60481217203173    6.06628052330023
H        -1.88253457730537   -0.57024473269555    5.58627743156476
C        -0.50404180105984   -1.79994886948049    6.67259702865083
H        -1.16579079507957   -2.65325080776392    6.64319847686431
C         0.71391375525098   -1.90062241873468    7.29784874868428
H         1.04269093454876   -2.81242660468067    7.77075875837808
C         1.53622846247209   -0.77389005036848    7.31068707823432
C         1.11830137618368    0.44877623762095    6.68951482213305
C         4.25750696841646    1.37054959141389    7.92170981013730
N         4.27483942953523    2.63466703579855    7.45166310444128
C         5.33783187611856    3.38946240852743    7.72327258090031
H         5.34292389754375    4.39959888594836    7.33855311186519
C         6.41479028899236    2.93100591184773    8.45601649153486
H         7.25012607731493    3.58631238179587    8.64317339514084
C         6.40325032031520    1.62434036574857    8.93795554538531
H         7.23563724656973    1.24415866384033    9.51010406486277
C         5.31008442915697    0.83395586602543    8.66663149571331
H         5.22330501704264   -0.18640529293333    9.00135690356974
N         2.76614295037585    2.19753665599192    2.63663554273596
C         2.38669382676658    2.61255051693074    3.83434754060545
N         3.31437955312615    2.46771107671155    4.82454311038358
C         5.63942277647389    1.49031875780517    4.66337032695029
H         5.93040727320086    1.60025936133314    5.69676591858490
C         6.50374225545607    0.93981282452615    3.74633849185372
H         7.48271952699286    0.61786394952263    4.07153427535993
C         6.15345517674883    0.78056554539491    2.39816769837608
H         6.87268864717443    0.34072367689418    1.72269117299721
C         4.92341490121008    1.16851260497007    1.92683445664061
H         4.64297061188002    1.04963839240098    0.89217993989527
C         4.02471851097672    1.72884033883023    2.83461600544857
C         4.38221210893527    1.89052950497749    4.21271954084866
C         1.13984408929689    3.19788769130104    4.21777590786805
N         1.06382006209185    3.51115562935269    5.52801053228950
C        -0.06604576561368    4.04758814212939    5.98478847504321
H        -0.11438668248648    4.27381496205351    7.04015721172762
C        -1.15340231560761    4.30191412309040    5.17113204634601
H        -2.04541317000848    4.73437398719264    5.59440241122363
C        -1.07995924540417    3.98261320398300    3.81790614591540
H        -1.91970235891957    4.16579071638045    3.16501471684953
C         0.08144322244328    3.42215865664483    3.33519579305464
H         0.21339292775870    3.13906611816062    2.30397316499266

