52
CSD_code = OGANIW | q = 0 | S = 0 | Stoichiometry = C20H30FSc | MND = 11
Sc        5.69941368941504    4.76658153367478    2.72466804088451
F         5.69952528788730    6.57116093328112    2.72484882082740
C         6.42321958215156    3.99848661665446    0.54753333655789
C         6.78835613855639    2.96888310071940    1.46821428496221
C         7.72638835740991    3.51668058847397    2.39565013390223
C         7.96701666022766    4.86992325624475    2.01871383513273
C         7.18204906313292    5.15700683616674    0.86451558464725
C         5.61850602019395    3.78408258649462   -0.70575012844621
H         6.27220632115528    3.46727302680960   -1.52243694990238
H         5.11416310069621    4.69844813363984   -1.01575187358943
H         4.86604870020693    3.01003733251576   -0.56362231260082
C         6.53124757382100    1.50719256474955    1.23112599178604
H         7.16537880542882    1.16059978886288    0.41087587528363
H         5.49775904058262    1.31627301670913    0.94566132976704
H         6.76787041968649    0.91021534223095    2.10733955714094
C         8.55421963255642    2.73612525077171    3.38165119519183
H         8.05272386460477    1.81952634809289    3.68544425367875
H         8.77000136275314    3.32078871689417    4.27604802064782
H         9.50843327441151    2.45768069119053    2.92741437340834
C         8.98733448595434    5.80638093600766    2.60122822500463
H         9.83655523817076    5.90540652773764    1.92101897371052
H         9.35957062058295    5.44080628232795    3.55634664171351
H         8.55921856371658    6.79844905695617    2.74883357529603
C         7.26904454143100    6.43212729222338    0.07829301649057
H         7.06303543369776    7.29471895821674    0.71212094401790
H         6.56163749621077    6.43174923151703   -0.74757151015784
H         8.27510386808368    6.54690277497189   -0.33011249731297
C         4.97554015101532    3.99852473347442    4.90177621541206
C         4.61043670555260    2.96890913593350    3.98109896986336
C         3.67241833366488    3.51669086673058    3.05363503152016
C         3.43177880224212    4.86994078708387    3.43055564947795
C         4.21669781236122    5.15702878213909    4.58478414397949
C         5.78041709333802    3.78422525351462    6.15497481264345
H         5.12682214214320    3.46767422530181    6.97184206863290
H         6.28495828736763    4.69857598881723    6.46471369062430
H         6.53272593581255    3.01003478212576    6.01285407593331
C         4.86753116083110    1.50721853161564    4.21821039037457
H         4.23345406000521    1.16067259633171    5.03851953441525
H         5.90103601236537    1.31627098794092    4.50360595429558
H         4.63081073497212    0.91022256634940    3.34203555639673
C         2.84456040581184    2.73608957738023    2.06769260720846
H         3.34612996852261    1.81957616615037    1.76374771624978
H         2.62854454996498    3.32081054069314    1.17338352477183
H         1.89045928863600    2.45748438086168    2.52206482908035
C         2.41151509497427    5.80641637601319    2.84797338389954
H         1.56219473369239    5.90538084298076    3.52806524674637
H         2.03941855989476    5.44090752197058    1.89277389907769
H         2.83963926245895    6.79850187615726    2.70050227072294
C         4.12960561620023    6.43210075399551    5.37107115504457
H         4.33565542022675    7.29474256390722    4.73732657986735
H         4.83692122336528    6.43167567448129    6.19701295024127
H         3.12350150184917    6.54681776389469    5.77937900545455

