47
CSD_code = OGAPUJ | q = 0 | S = 0 | Stoichiometry = C20H16N6PtS4 | MND = 4
C         7.61243682305873    4.36175711994246   14.82204176866585
C         8.58430700767035    3.10090521711287   16.38842178640549
H         8.60799169657481    2.26668755045592   17.06917255758916
C         9.60152244604260    3.96174043739375   16.18298051305380
H        10.56476445725136    3.97723155788043   16.64797379830680
C         5.74858106819622    4.32153537625723   13.40119968580131
C         4.99437163555512    6.34617373159243   12.14388901762722
C         4.02207431736770    6.75218167878656   11.22827686967887
H         3.28913064733441    6.03854913674481   10.87821074981702
C         3.99298467566482    8.05394830051851   10.76965316192663
H         3.23454611073830    8.35388649111086   10.06189859357114
C         4.93196063982552    8.97035639983455   11.21466538267585
H         4.90913093933408    9.98817123855676   10.85623456856771
C         5.89788717114837    8.56995201191862   12.12203629131127
H         6.63363499738316    9.27797756609922   12.47336836101371
C         5.93551871687449    7.26945150670616   12.59103510147042
H         6.68741667575110    6.95993765169701   13.29573420269078
C         5.65569874575093    0.65633220646778   18.31975229827965
C         6.37775454902861    2.75645731035872   18.55613177850495
H         6.65288753653769    3.72487369050889   18.17383425972050
C         6.34231414637814    2.42279876422466   19.86194987359005
H         6.58325096307619    3.02832466978614   20.71022600039996
C         4.72711888790857   -0.74746497219024   16.68538146938395
C         4.51737974739468   -3.21468439648464   17.02983359291052
C         4.04210499021275   -4.36088369701842   16.39032484958788
H         3.60197497982929   -4.27797226077668   15.40621224750985
C         4.13022140180393   -5.59330036864559   17.00613749652108
H         3.75890397483895   -6.47137038317329   16.49894723355359
C         4.69137075666481   -5.70290315087924   18.26813124271496
H         4.76045655305681   -6.66644241228191   18.74955124920230
C         5.16247823890181   -4.56752125229966   18.90501170623945
H         5.60069717720578   -4.64417767298142   19.88897506196910
C         5.08258223268111   -3.32788745601233   18.29711956021130
H         5.44877343437558   -2.44664489068194   18.79413596225530
N         7.46500215180249    3.33100925472890   15.63932043380506
N         6.77073158953100    4.90216020080401   13.96428389941697
N         4.95246651561295    5.01925918114513   12.56332723383654
H         4.21307056147834    4.46335174677934   12.14986278975363
N         6.00837184125174    1.76616306696383   17.68986429835388
N         5.25757341766022   -0.50880590274137   17.85179426658215
N         4.39758089189898   -2.01085706689213   16.34069164919595
H         3.95887286212473   -2.08146671455059   15.43009018141779
S         5.31333280439886    2.64427337200704   13.48020824540882
S         9.17382268393443    5.13884375489097   14.99051939312329
S         4.24119380216234    0.40954712413543   15.48926012145308
S         5.81960747357891    0.78667212864203   20.06005053490075
Pt        5.82994506315910    2.07327315356558   15.65737866001047

