46
CSD_code = OGAQIZ | q = 1 | S = 0 | Stoichiometry = C17H24IrN2O2(1+) | MND = 8
Ir        3.27173215082755    7.00760288776494    8.84949370527580
O         3.39781454910791    9.38349903807571    8.34695128753230
H         4.30177756654849    9.70105017671669    8.24159738604947
H         2.89363060550753    9.69664141449232    7.59020714534314
O         7.18263784520875    8.07588840179476    9.40308928409690
N         3.92519175863862    7.66308989688691   10.70967074463679
N         5.24577371686683    7.20489199739348    8.54286951376108
C         3.17583981667158    7.86524064902084   11.79060736357358
H         2.12976418023641    7.60896396854465   11.71963713470570
C         3.69266537968384    8.38253781298947   12.96622515508849
H         3.04702664369185    8.52100307898695   13.81831485064631
C         5.03920893961410    8.71339409700609   13.02677301912176
H         5.46883906259566    9.11415327984873   13.93137326344638
C         5.81587956107111    8.52009425001216   11.89739022304918
H         6.86671699893252    8.76180375688879   11.85830427727858
C         5.22327289110647    7.99116124539370   10.76098755663067
C         6.00966633518265    7.75822237780188    9.50131506113777
C         5.90566863861547    6.83393772693282    7.30976157508798
H         6.88240377869879    7.32201669397703    7.27654627530705
H         5.31613016761772    7.15091621161841    6.44917750223962
H         6.06134265997329    5.75513150273593    7.26321780240142
C         1.26635032476343    6.02729070131760    9.27758781830928
C         2.34711905195084    5.07375003998931    9.11041672892888
C         2.78207909232423    5.13704598713392    7.72418379780578
C         2.11387677506687    6.22655981461247    7.11992635397871
C         1.15411763283968    6.75714236256484    8.08332509369812
C         0.32466195729619    6.09576036881696   10.43289586809038
H        -0.00745454968972    7.11530368037443   10.61810256370920
H         0.76837799370134    5.68984193016404   11.33811000763309
H        -0.56036027017292    5.50036007248324   10.20314818537845
C         2.69071727520111    3.97715743740720   10.05743311212042
H         2.53911159740778    4.27824655113567   11.09063326292969
H         3.72287025913143    3.66008533354406    9.93443846546637
H         2.04855857503617    3.11808070840661    9.85671269720883
C         3.66012808134934    4.13398699017897    7.06328368485605
H         3.06257456336139    3.25509945608415    6.81679760247532
H         4.46292547353547    3.81368066016960    7.72219973665125
H         4.08860107494551    4.51927872108749    6.14310234605377
C         2.16020304638969    6.58876857838185    5.67249312243719
H         3.12499138456247    6.34432770149652    5.23560132539287
H         1.96586111820012    7.64701664479776    5.51432432527774
H         1.39593312393118    6.02639814078616    5.13447224281868
C         0.11830153157922    7.78787213127926    7.79683083092817
H        -0.84197013671068    7.29518175795374    7.63777904816468
H         0.35286202421900    8.35812878511281    6.90251109133329
H         0.00037975338310    8.47449497983984    8.63308056195074

