66
CSD_code = OGARUL | q = 0 | S = 0 | Stoichiometry = C28H28HgN2O3S4 | MND = 5
Hg       -0.15651676357750    4.71684058997039    0.61486435742397
O         0.13847234820564    2.85125332934285    6.37212278274237
O         3.38898192810746    0.71140378589108    3.46300500207977
O        -0.20015874467376    2.42870249227427    2.28215092681201
S        -0.99109066469638    5.10550036112830    3.38024975685012
S         2.17184312681937    2.97099529450565    0.52205644649293
C        -0.36394978900203   -0.58024729356804    6.28096042300923
H        -1.31975042098953   -0.59648948525199    6.78342321989302
C         0.02965429512083   -1.65891211376682    5.50861137522848
H        -0.61940549526686   -2.51570159868570    5.41180105691485
C         1.24431550509048   -1.63655914254889    4.84603658497174
H         1.53967609409978   -2.47459694078480    4.23226044907540
C         2.08442092932409   -0.53870993281044    4.96892494514877
C         1.69234492131745    0.53357996208573    5.75811802481664
H         2.33915770376178    1.39354203822032    5.85010355188936
C         0.46786149396062    0.52299743934381    6.41150495097724
C         0.05409254247839    1.72266039907655    7.22278794119449
H        -0.97158327280820    1.59567490515978    7.59332919966427
H         0.72887315181427    1.84824604260738    8.08251086696623
C        -0.19042406284789    4.08492940252510    6.85897004945958
C        -0.63180495437464    4.32260311601990    8.15477768476394
H        -0.73412317803090    3.51157613845444    8.85855146942036
C        -0.94898149097717    5.60878096660002    8.55774245083531
H        -1.29315794721981    5.77456773115957    9.56742306825815
C        -0.82737261401946    6.66957612007293    7.67943244704888
H        -1.07535505105773    7.67051710649239    7.99555045486172
C        -0.38216713530839    6.43705901353793    6.39089760952184
H        -0.28325141021105    7.25262182649772    5.69056788318011
C        -0.05679503384603    5.15830418335725    5.96504088348420
C         0.40966335381340    4.93603719029490    4.56514483569335
H         0.84599413891768    3.95191598953748    4.42681607044371
H         1.11899758484660    5.70168116920372    4.24870899604982
C        -1.89991649527411    3.53682122944335    3.58877831288795
H        -2.34217135229218    3.54113368381654    4.58430136400469
H        -2.68678475470033    3.58922791578860    2.83618166404548
C        -1.05540624391079    2.28667487811545    3.39729669918256
H        -0.45448550245072    2.08744422479379    4.29550367021090
H        -1.73180359375009    1.43532418354672    3.23205949484059
C         0.51806086365365    1.24206413580956    2.01461547282370
H        -0.18799053835729    0.40728787550440    1.89710451102562
H         1.18601624193122    1.02066301457488    2.85874120257382
C         1.31306063779510    1.37433123534875    0.72524393227984
H         0.65192165937186    1.32024586893384   -0.13969650536942
H         2.06315448866807    0.58664975285141    0.66579312765407
C         3.19226120952055    3.08977944463015    2.05208552082098
H         3.46890999029355    4.14306828575069    2.10761178563788
H         2.55938604131287    2.83173215176518    2.89523253271761
C         4.39166648393763    2.20754043715338    1.95208875222035
C         5.44426821424021    2.56265196367163    1.12239841197675
H         5.37114991994840    3.48436568672570    0.56519509963044
C         6.56292353283696    1.75834407158553    1.00284219224878
H         7.37353789709254    2.04916449146482    0.35351255879711
C         6.63321117987822    0.58128159994642    1.72466590422104
H         7.50108392848355   -0.05570137947728    1.64430624444008
C         5.59361433438869    0.20458736242440    2.55805546716710
H         5.67267233767014   -0.71767407001586    3.11185364322297
C         4.46482746754704    1.00644785686025    2.67409433020692
C         3.39874847600270   -0.47468910036392    4.23618338842375
H         4.23146821322736   -0.44828211877812    4.95465553500162
H         3.51629040706193   -1.35448812801119    3.59013447150383
S         1.07192591979551    6.91868161354611    0.33189569418932
N         2.65222381135467    6.33701540800705    2.57859457498079
C         1.99926013098991    6.56954882762053    1.65694213710548
S        -2.08918322055830    3.73570921512861   -0.68860619903504
C        -2.20753726611337    2.28234011232420    0.09455982067148
N        -2.34582550830634    1.25475818321636    0.59602942276901

