62
CSD_code = OGATOI | q = 0 | S = 0 | Stoichiometry = C19H37FP4W | MND = 6
W         7.82692835752639    3.11539011883001   10.39419006741720
P         8.93935752810930    2.99400494439703    8.28035305981284
P         5.88698488650302    2.89840959120471    9.01029513841392
F         7.82715853026425    0.98754224425629   10.39422542413231
C         7.82706739363998    5.01786574915502   10.39415455741696
C         7.82709309522143    6.41338261884317   10.39419619558961
C         9.01644408970802    7.14930401376258   10.19808467810036
H         9.93836812182884    6.60360533931684   10.04709066439212
C         9.01024466693906    8.52536709540315   10.19925145813767
H         9.93484921030757    9.06707887331127   10.04713062108088
C         7.82714029761429    9.22601168960132   10.39423765082100
H         7.82714878729893   10.30641393260594   10.39417665788953
C         4.73565305190726    4.30201442132348    8.75105067526125
H         4.25871387802862    4.53743285192831    9.70077637299853
H         3.97536555466927    4.06079688499779    8.00820959711772
H         5.31147272106511    5.16853620835073    8.43255176316982
C         4.70616712234660    1.51339124287950    9.24518463636918
H         5.28842175419426    0.61398136416252    9.43999398892911
H         4.07455237453789    1.36845750057158    8.36813959312522
H         4.08493303207935    1.72318499954410   10.11586271091153
C         6.41533590177193    2.54951855962575    7.25545580607528
H         6.61901479146190    1.47491731536673    7.19602269207917
H         5.61011056145355    2.79145826243139    6.55341026673302
C         7.68454086669625    3.32957988642920    6.94630289157139
H         7.47967345342982    4.40533876050098    6.98114462279223
H         8.08317983165546    3.07715336079257    5.95755127527860
C         9.61103284503695    1.37840777638444    7.72615665813290
H        10.55143777974520    1.19999783352995    8.24659658044469
H         9.77442643419459    1.35141035112610    6.64832937315359
H         8.91010014442204    0.60024234841259    8.02347804525032
C        10.27320572889946    4.13192676264123    7.73917825100003
H         9.93880626408043    5.15305515510975    7.90984621976201
H        10.50917703528029    3.98921614271997    6.68465659716919
H        11.16297118446290    3.94850661269558    8.34028080608062
C         6.63775348637043    7.14934159956227   10.59025462338289
H         5.71581534934502    6.60367460979610   10.74128290761726
C         6.64400270535627    8.52540632871514   10.58915543220215
H         5.71941021626721    9.06714820377421   10.74124970839571
P         6.71475252976081    2.99405064837552   12.50784367213525
P         9.76726874183259    2.89847490422129   11.77816626605062
C        10.91853787871742    4.30214432506850   12.03729395728219
H        11.39544209818241    4.53757669795659   11.08755271944725
H        11.67883911386806    4.06093087540484   12.78011492646088
H        10.34268332246343    5.16863242592353   12.35581565263816
C        10.94805455066944    1.51343707345631   11.54319944687552
H        10.36582323004543    0.61401188939410   11.34838083135585
H        11.57966761162140    1.36851192501345   12.42024260561537
H        11.56929149453295    1.72324423984820   10.67252702525923
C         9.23883842446606    2.54947835151927   13.53295618329868
H         9.03517889705815    1.47487211050841   13.59236914330733
H        10.04403994730689    2.79144437059170   14.23502049838342
C         7.96955747006916    3.32947532519782   13.84195982192809
H         8.17442168111477    4.40523251146161   13.80715827906648
H         7.57092240647368    3.07705411021041   14.83071687929511
C         6.04318841839349    1.37845280047856   13.06218836456904
H         5.10279266192100    1.20003525676842   12.54174397037015
H         5.87976842438710    1.35145656115311   14.14001626676978
H         6.74410958688867    0.60026704448184   12.76488373008081
C         5.38094208754602    4.13194192443375   13.04916162752626
H         5.71533942980588    5.15306871621315   12.87848423717342
H         5.14502578257655    3.98921850491987   14.10369722188750
H         4.49115517658067    3.94851585333924   12.44809840501695

