73
CSD_code = OGAVIE | q = 0 | S = 0 | Stoichiometry = C32H28CdF2I2N6S2 | MND = 4
I         9.36321980757863   21.07691120080753    0.98942512012888
Cd        8.37317595072754   21.11869367409363    3.52169852100031
I         9.39264446813995   22.37062369165347    5.69848497504045
S         8.04833957987512   18.51650977441513    4.51903436681545
S         5.46485294057459   20.87802446120617    3.33666701607584
F         8.72486207994594   12.73143802436328    5.89611233933189
N         6.08581866357001   19.50838441080054    1.15126197958294
H         5.92764746786131   18.73233295753705    0.52713499411336
H         6.89291184943982   20.10587666598009    1.00941730696648
F         5.61117293712440   16.93846796256719    8.23447732227111
N         6.70459148250605   19.94359387814866    6.30363753866285
H         6.65963511468948   20.39101184755543    7.20724767848275
H         6.09133954784457   20.23411117107256    5.55297274280191
N         8.57144573999565   18.87742389228456    7.06419458431395
N         8.36641692707176   19.40385603754127    8.29262561381777
N         4.28366812636513   18.76761647821275    2.33694699726901
N         4.04988359209730   17.83341159984692    1.38674720943773
C         3.96180513679436   18.27042499702077    4.72321896895474
C         7.75568497630121   19.15952376295162    6.04597063666932
C         9.83059451501938   18.12706989818781    6.95452385477559
H        10.42506233614754   18.56047531874591    6.14243712544332
C        10.45518578554359   18.36887459971879    8.33771707585079
H        10.67360592670199   17.43130711319791    8.85023421935643
H        11.36974078119857   18.95980111750226    8.27826212646738
C         9.37161922325106   19.15029469008100    9.04840987039931
C         9.44132696725799   19.57860369297045   10.42620572012266
C        10.55638920542375   19.29013389637898   11.21594760678635
H        11.38820906329100   18.74169953175321   10.80108413056504
C        10.60338129258409   19.70829502593705   12.53192844887394
H        11.47011070469393   19.48176787811439   13.13492374627530
C         9.54567393712415   20.41652498920106   13.07887390880197
H         9.58765339439435   20.74103608026732   14.10774546022875
C         8.43483252750510   20.70948478018375   12.30187366201015
H         7.61143037660796   21.26415693577123   12.72633292449698
C         8.38013766693385   20.29583733497666   10.98719919476259
H         7.52460891464988   20.51836124185338   10.37021066911439
C         9.55026717434579   16.67489800368129    6.66764293140604
C         8.66011336454294   15.97530021787156    7.47512230458671
H         8.17125343961551   16.47047006663755    8.30108630737866
C         8.37653460721183   14.64626237075076    7.22052967992912
H         7.68123067651856   14.09581977215693    7.83448973081247
C         9.00059800388584   14.02737329123279    6.15251801202382
C         9.89470739101643   14.69878233223361    5.33869990862560
H        10.35994926395981   14.18553851565562    4.51251231850614
C        10.16379574272803   16.02896434168488    5.60306986040097
H        10.84630267423780   16.57213299621721    4.96745637840085
C         5.29865767046406   19.63832756178352    2.21485715000729
C         2.96816266756795   17.19594080962263    1.65338113885288
C         2.29857771777511   17.69101830852497    2.91762139123479
H         2.14866153722613   16.88151606355762    3.63273049204131
H         1.33075658513772   18.13928642036603    2.68792258632555
C         3.31433578794048   18.72423197477199    3.43802861235216
H         2.87833178237952   19.71910869682768    3.56895053197063
C         4.88680039687963   17.23254717446072    4.71216670065725
H         5.18487114279751   16.77801485187194    3.77911005616439
C         5.44944810846111   16.77753282320971    5.89019320393035
H         6.18069376940976   15.98508962726003    5.88964882382489
C         5.06561083999432   17.37018207360086    7.07851966822913
C         4.14221825313480   18.39913298902990    7.11980568538681
H         3.86763661363020   18.83713762287148    8.06597120591449
C         3.59457911905404   18.84780759933699    5.93204405626099
H         2.87915290446304   19.65621835585316    5.94419442633350
C         2.45709770925804   16.13442964904361    0.81742605729859
C         3.17133387713706   15.73154707320270   -0.31564631517588
H         4.10272418831656   16.22496119755756   -0.54336142914383
C         2.68961412455360   14.72135455279031   -1.12207027664608
H         3.24851984468095   14.41714525146200   -1.99417881100664
C         1.49014885241972   14.09637983843016   -0.81487557044550
H         1.11416585510425   13.30601638881356   -1.44672227580238
C         0.77470749758741   14.48800551201736    0.30520681593354
H        -0.15953278910847   14.00288320274797    0.54572973680023
C         1.25060178690860   15.49820373490630    1.11872872539045
H         0.68289282751637   15.79477811006769    1.98760454239718

