40
CSD_code = OGAWOL | q = 0 | S = 0 | Stoichiometry = C17H13BrCl2N2O3PtS | MND = 4
Br       22.13485724121887    7.35990046194358    3.73935408891412
C        18.34935757055466    6.01750478511662    2.79932033222136
C        19.39126083854669    6.68961205369845    3.41594964071740
H        19.20562067159073    7.36019035291262    4.23993157100557
C        20.67034625303208    6.46365788132110    2.92988286696829
C        20.91271131028738    5.60034135790566    1.86768439058898
H        21.92452416818271    5.45423871140862    1.52235256142804
C        19.87050486147600    4.92530231989020    1.24682416732149
H        20.05049943629993    4.25498059511752    0.42271524041796
C        18.59342450420071    5.14390302888290    1.72312712542374
C        16.36099223176176    5.10036872364491    2.04729490303162
C        16.91106134376977    6.03323217644082    3.06492928342838
C        17.17597224778469    3.68831493394903    0.24020952499128
C        15.75754224744831    3.34498429819080    0.07470269127292
C        14.76541084077895    3.90576802073384    0.90429402917616
C        13.42498944819222    3.55764289775571    0.71556034638673
H        12.67850575117555    4.00289842581078    1.36539901032347
C        13.07928189871323    2.66799537659470   -0.27889151213296
H        12.04338287470803    2.40198585285369   -0.42113582391893
C        14.05716670130010    2.11210455719628   -1.10030785390074
H        13.77606014030123    1.41729449611623   -1.87638586747760
C        15.38391022388215    2.44806479782968   -0.92556813995570
H        16.15993351124226    2.03232034969649   -1.55008505264032
C        12.43869369759824    6.39998114928691    6.14582983270756
H        11.86045285705168    7.12158943936021    6.71181107040825
H        13.46110021716555    6.33434887630967    6.49890468216206
H        11.96858901689816    5.42334958106653    6.18862356020111
C        13.27852458790204    8.54771243693240    4.65470597767056
H        13.23235308645872    9.08767919815539    3.71458315269482
H        14.31180981851116    8.35180685418629    4.92122509102432
H        12.75863838971920    9.09606825865575    5.43182529680783
Cl       13.70810695655534    7.47282487752344    1.56429205114762
Cl       13.79481465576018    3.98325846778887    4.56429526526340
N        17.37929261497406    4.59597322697438    1.28213375156958
N        15.10428444340246    4.79755696025955    1.90179707869594
O        16.26307393246717    6.63270065604860    3.90101968202848
O        18.08807616511038    3.25781039177685   -0.42342630318218
O        11.10412733262129    7.16545440248352    4.00238288383046
Pt       13.79735734177447    5.72746865788270    3.06142889439838
S        12.47298856958873    6.94181011030212    4.41251050897640

