40
CSD_code = OGAXAY | q = 0 | S = 0 | Stoichiometry = C17H14Cl2N2O3PtS | MND = 4
C        -1.34246874569740    1.66509488172044   11.78800575135203
H        -1.05805753359426    2.59844338124327   12.24735431748541
C        -2.34752120710389    0.86927643100309   12.31606035647617
H        -2.86340249282650    1.18385900407903   13.21007339406571
C        -2.69998601093390   -0.32772591852675   11.70836385377577
H        -3.48647182447634   -0.92927252857340   12.13796180136055
C        -2.06573339970342   -0.77702922974756   10.55413288302995
H        -2.34080026864572   -1.70597115376362   10.08286521850180
C        -1.06747139808164    0.01665904077184   10.03276088093664
C        -0.70048011028667    1.23236529097407   10.63821553903278
C         0.37409356931814    1.83325568495059    9.85340914864850
C         0.57848553602154    0.86233910506937    8.73931766872538
C         1.51231366738214   -0.01417290797852    6.83508189304690
C         0.66847647455762   -1.13898961870025    6.92240185544688
C        -0.30865455617114   -1.27872351172260    8.01049543465908
C         0.75702768340609   -2.13675344625568    5.95182985257808
H         0.09957823630316   -2.98840273028250    6.03894223753324
C         1.66098369194494   -2.02383601390113    4.91644170579926
H         1.72364758817209   -2.79952763360652    4.16907417187362
C         2.49237585597125   -0.90942918034000    4.83140476082294
H         3.19573469300798   -0.82586768116302    4.01739161019188
C         2.42229373614567    0.08797348307496    5.77945820896545
H         3.05910009220994    0.96506516415089    5.73273223933649
C         5.26055081490830    4.65747395315250    7.32786188857977
H         5.34662161304795    4.52510322699345    6.25460265450493
H         5.71544683104625    3.82621048121412    7.85385117632340
H         5.69378565858218    5.60709390811289    7.61967465792071
O         2.93041637551440    5.83579318183918    7.04561348403201
C         3.59515054466694    5.10750950539634    9.49794393629521
H         4.02391705808287    6.09776256772547    9.60038602598300
H         4.20254376681279    4.35045321072286    9.98071078207970
H         2.58604548289362    5.08708761328175    9.89802380272399
Cl        4.31085267288326    1.82069066717788    8.72753166031544
Cl        0.63661403108094    3.61072954051936    6.60430639067312
S         3.48747800113261    4.69559318506434    7.73732840737375
N         1.44737780303599    0.98854457390166    7.78141790213373
N        -0.27461643118981   -0.19535502706514    8.88886954621910
O         1.00941525879812    2.85548230378837   10.01744856015431
O        -1.06487223740668   -2.20857279262278    8.16075955837703
Pt        2.44290947835225    2.70646998692342    7.67219478369343

