149
CSD_code = OGAYOM | q = 1 | S = 0 | Stoichiometry = C78H64CuO2P4(1+) | MND = 4
Cu        3.04192640738443   11.02675696394110    4.94285574541435
P         2.37044795657034   10.33510196683322    7.09018942519060
P         5.40432003549720   11.18008692337563    4.71234862722755
P         2.48092103316868    9.21672658852115    3.50648812991892
P         2.28265204083142   13.12012968811667    4.16251826809163
O         5.05145447509103    9.52378182141770    6.81870783092460
O         2.67146403309654   11.50567237032749    1.96495192676940
C         0.58174648327765   10.02995893438615    7.30438892540227
C        -0.09807847396946    9.50926999154345    6.20874874464626
C        -1.44836234853829    9.22622944034070    6.28371071186707
C        -2.13442298281032    9.47163809533919    7.46246940148508
C        -1.46608686712383    9.99964453855362    8.55623452602464
C        -0.11279473113198   10.27953724223495    8.48425177185088
C         2.67006131653275   11.51454206078832    8.45079246249017
C         3.47252538559263   11.24968962680162    9.55311577068106
C         3.65890288889152   12.22457515804575   10.51856988586470
C         3.05695341575967   13.46482670743266   10.38838869235502
C         2.26625861127193   13.73891569444670    9.28236264426917
C         2.07772489847179   12.77005035072395    8.31752967406686
C         4.41817199015564    8.59397621251250    7.59632153574011
C         3.05135826192899    8.79936663266552    7.79509898467142
C         2.32309797715899    7.86887740295544    8.52254708633126
C         2.96339176887951    6.75958034953721    9.04116535519162
C         4.32662179953126    6.58850542991364    8.86978774201516
C         5.08396530044391    7.50497250845778    8.15293519607612
C         6.59683046099328    7.44879136401483    8.04223525955707
C         6.99339674180811    8.07668350785701    6.72054567241721
C         8.13686202801275    7.74028403303958    6.00678623935910
C         8.49399062685970    8.42646730327139    4.85860900640751
C         7.72193002388757    9.47465441788277    4.39044001151620
C         6.56397896120895    9.81805662289130    5.07063084355734
C         6.21673236938189    9.11688516161730    6.22613569988734
C         7.16970311365779    8.34072634606873    9.16455429824000
C         7.14611959118254    6.03183141522695    8.20248910539186
C         6.11307740113010   12.34570213397965    5.92741100539252
C         7.47899886601522   12.61698881676490    5.95954991546535
C         7.98642236330793   13.46596274660554    6.92409426315216
C         7.14290980867430   14.03980424960022    7.86474341292703
C         5.78591683479117   13.76915153885271    7.83701230667273
C         5.27431426569730   12.92347265644684    6.86863266370552
C         6.04644504897526   11.83319687680208    3.13714152861097
C         6.17407182335509   10.97094965450376    2.05069980827665
C         6.61610112259539   11.44445776148647    0.82987168288155
C         6.90315969937523   12.79025625994777    0.67098171032205
C         6.73840973493448   13.66133930509716    1.73477651716738
C         6.31151860097122   13.18753695420964    2.96098333435391
C         3.17538814908307    7.71663035702272    4.26448262937021
C         2.40135802924080    6.94377929160260    5.12808175520977
C         2.95253406300317    5.84781538592306    5.76414677197320
C         4.28429690622478    5.52344116129104    5.56435692854945
C         5.07116427727482    6.31111332859072    4.74090423962870
C         4.52318213549895    7.40886474981384    4.10338876193181
C         0.83903205541968    8.66301722102307    2.90309792662627
C        -0.11772047439777    9.64757573059045    2.67980418550931
C        -1.35659881590296    9.31304121124470    2.16542082877183
C        -1.64545846949720    7.99175134965822    1.86690037046045
C        -0.68843272554671    7.01054180971057    2.07285209672957
C         0.55420881518759    7.34002198731973    2.58246879779639
C         3.15646266818461   10.47806189831238    1.20207030621294
C         3.22311127463255    9.23789926868652    1.83810127655019
C         3.70195845123588    8.13977877950703    1.13823947628426
C         4.14941166404761    8.30677811925392   -0.15890597068468
C         4.07770435324221    9.54406230422229   -0.77779197099552
C         3.56593538061131   10.65210625325475   -0.11635309777195
C         3.32164373181771   11.99779626138177   -0.77172676545493
C         3.45178524869629   13.07100039867656    0.29265200935716
C         3.84821284438379   14.37753136854592    0.04119929905652
C         3.79299539760257   15.34631351262500    1.02920719287094
C         3.32425303750019   15.04195586678922    2.29388450446775
C         2.94946036088296   13.73820144745381    2.58462381828752
C         3.03558685982877   12.76705694844080    1.58434973425547
C         0.49734376762820   13.06339889445067    3.79385149779922
C        -0.07507867578467   13.54337196671502    2.62149017986685
C        -1.44324903045755   13.44358302171974    2.43437624087241
C        -2.24683667331959   12.87615287497415    3.41002205315688
C        -1.68180470186782   12.39874980693199    4.58222551440701
C        -0.31589479076095   12.48761179471121    4.76822986091303
C         2.38479624870230   14.61139165226830    5.21174382098736
C         1.28266477783945   15.19983753809980    5.82151200350673
C         1.45480985105693   16.28680793175401    6.66117747818305
C         2.72124154231110   16.79046475188918    6.90660009506504
C         3.82393795669529   16.20618598739644    6.30430428935712
C         3.65609286210199   15.12157458127573    5.46615175740649
C         1.85198018796606   12.00957168134669   -1.24675112276690
C         4.23150866035490   12.24541651116153   -1.97357207892172
H         0.44553420973147    9.34528348103044    5.28682008389198
H        -1.96099990827810    8.82275373246584    5.42262834451953
H        -3.19008335898950    9.25603333349639    7.52917603531208
H        -2.00231848207613   10.19284096875732    9.47333418794446
H         0.40187289074620   10.68923650881117    9.34177646148861
H         3.94336514126461   10.28363603629722    9.66483130396184
H         4.27695619917699   12.01235098365792   11.37822114463508
H         3.20525210632411   14.21917642836042   11.14628580932673
H         1.80138642386958   14.70699817526840    9.16955063177402
H         1.46760940046334   12.98162067702690    7.44783793539172
H         1.26454284109165    8.01094940539385    8.67801066878319
H         2.40109566186182    6.03045352961576    9.60394105753068
H         4.79944548532310    5.72848628389564    9.31385383968141
H         8.77171786047550    6.93998387489392    6.34922993106338
H         9.39392505479658    8.14953245791691    4.33106268705888
H         8.01723607220599   10.01388775584085    3.50279744585249
H         8.25605299428949    8.35206669466587    9.11391246317517
H         6.86724056643583    7.95811168807716   10.13693938023155
H         6.81162361737745    9.36449861321600    9.06692375174576
H         6.87441971530761    5.62550562504077    9.17223816233088
H         8.23118442927668    6.03945827417241    8.15683962980779
H         6.76302698117487    5.37829689625089    7.42277957130442
H         8.13686358501395   12.16610389394971    5.22928209965270
H         9.04461882794666   13.67984984762500    6.94681255838577
H         7.54781838919222   14.69813691170962    8.61850771050046
H         5.12228329753888   14.21393447119490    8.56324969729661
H         4.21443497928391   12.70903549986481    6.82901821869566
H         5.93778522123722    9.92154528191366    2.16642279994783
H         6.73805492038368   10.75827164966980    0.00464459109487
H         7.25836501291112   13.16184689742865   -0.27838643313139
H         6.95175293829284   14.71233476454323    1.61141306007678
H         6.20524584603889   13.87006300360850    3.79229215820728
H         1.36055396145810    7.18911323506703    5.28826141527405
H         2.34054749734736    5.24298038292422    6.41595302383546
H         4.70504175612038    4.65646411021430    6.05067823347020
H         6.11348646220488    6.07174833507247    4.58986681633994
H         5.14369854987545    8.02723310430190    3.46900108495351
H         0.11662561163941   10.67523215268670    2.91670484321595
H        -2.09385630969425   10.08491839366824    2.00081437922006
H        -2.61313008221201    7.72549881614503    1.46945059825971
H        -0.90973845042443    5.98182900510235    1.83037526367913
H         1.29654135530262    6.56955680212784    2.73329840092227
H         3.73251606104636    7.16693533852539    1.60543084894108
H         4.53774846459475    7.46017334764192   -0.70407936243639
H         4.41160181061552    9.63138812122718   -1.79849212265739
H         4.18978961917013   14.65819892924825   -0.94113219476327
H         4.09460499234037   16.35695972329254    0.80084553759416
H         3.24822993908436   15.81142714374256    3.04678474212669
H         0.54237875229778   13.99409289471044    1.85777396111996
H        -1.88438840362272   13.81592425468404    1.52169428080932
H        -3.31323422033637   12.80652794832695    3.25731113606654
H        -2.30030364056579   11.95251537291476    5.34667157213174
H         0.13851002639638   12.09968768072325    5.67173811385314
H         0.28798172637547   14.81992304139921    5.63666647179636
H         0.59213036964203   16.74393370228529    7.12321348461592
H         2.84885527870325   17.63784949731032    7.56297331888850
H         4.81474504658776   16.59392170836407    6.48918217104226
H         4.51255228175019   14.66193123974073    4.99269337967113
H         1.60942971573808   12.97498714141172   -1.68545060702660
H         1.17338704505088   11.82599764434447   -0.41527780405923
H         1.69551545928429   11.23469930045365   -1.99377205154759
H         4.07951352272484   11.47896109936517   -2.72795572464546
H         5.27605007128108   12.24892066717024   -1.67410553962359
H         3.99250944704914   13.19761938916277   -2.43818470325584

