105
CSD_code = OGAYUQ | q = 0 | S = 0 | Stoichiometry = C44H48Cl2O6P4Pd | MND = 4
Pd        7.35389577136304    6.24251947577249    4.39614681639314
Cl        7.32645555512029    4.17789082917583    3.38901061460511
P         5.11738755918570    6.40347184023895    4.21304788141504
P         1.72115466828243    1.34507143215864    2.30725943949385
O         1.79388964916335    1.01340920586397    0.88093118286548
O         2.16725414413339    0.12659292345712    3.27074199373462
O         0.26180628536285    1.69491519128047    2.86406100151508
C         4.09993272337751    4.97844239256598    3.72928746729370
C         3.31298654087272    4.27310983181447    4.63381912935229
H         3.26671167887075    4.58603485580646    5.66830882637678
C         2.59076531850680    3.17547270204469    4.20436992527996
H         1.97032487615324    2.61427397826934    4.88635747010138
C         2.65822334290657    2.78272973023717    2.87704207455678
C         3.45665103441173    3.46927518647406    1.97579739076937
H         3.49738662434690    3.12919995448221    0.95186840279466
C         4.18028624627174    4.56495422624003    2.40118355368123
H         4.82086213343238    5.10508972947102    1.71574943762455
C         3.19276888780039   -0.75775816874181    2.83925960168536
H         4.13822388885788   -0.44375792925416    3.29568431393619
H         3.28734179007248   -0.69367745407310    1.75006595882596
C         2.84029122059432   -2.17380299008395    3.26530941398660
H         3.64859892927521   -2.84832348884791    2.99698418222114
H         1.92822272505993   -2.49989539567126    2.77196969911993
H         2.68657404917543   -2.21050711902882    4.34079231119272
C        -0.85768840461149    1.07991767049176    2.23834492044023
H        -0.69104459447891    1.05702874884350    1.15566820605042
H        -1.71026235323601    1.72801535212364    2.46259701039191
C        -1.08956561163030   -0.32810476595874    2.75844783782679
H        -1.99992689190631   -0.73710640363329    2.32764678656903
H        -1.17725266921280   -0.31716963741512    3.84209559748370
H        -0.24803150236739   -0.95868375420928    2.48326790461628
C         4.47740374280467    6.85672003109177    5.85087829396434
C         3.40499698911685    7.70414663833240    6.08814849151544
H         2.88250127417654    8.16327751231146    5.26148337192653
C         3.02574789341955    7.97556250012412    7.39224383770306
H         2.19666558021660    8.64189438820694    7.58072317752817
C         3.70899446263792    7.40483753017070    8.45280730634627
H         3.40978845948793    7.62538466209116    9.46681670751320
C         4.78745178981149    6.56460289107836    8.21848317229337
H         5.32858472985540    6.13384611182845    9.04814491329543
C         5.17504844332430    6.29544421163442    6.92067502584616
H         6.04200180161351    5.65663441263538    6.71505486361760
C         4.58530376399603    7.65294939235824    3.01189291551840
C         3.25350124133346    7.80118996805893    2.63368185914312
H         2.49615293547728    7.15963325169326    3.06429694324219
C         2.91141115145770    8.75413200262194    1.69227795991952
H         1.87845459763443    8.87360720075792    1.39969265156017
C         3.89105156343018    9.55003653627205    1.11826755183899
H         3.61679603190799   10.29220016650913    0.38316528307717
C         5.21973325858082    9.38850287724178    1.47563724239966
H         5.98141913691561   10.00230789071875    1.01797205863688
C         5.56900496463449    8.43815837669084    2.41831866270103
H         6.61095546384112    8.30023501752688    2.71318316145387
Cl        7.38133277416811    8.30738985037165    5.40260679245938
P         9.59057754003780    6.08147656207149    4.57927437389623
C        10.60883976303576    7.50601980695980    5.06310396867977
C        11.39612605396176    8.21103371881660    4.15858869776281
H        11.44175031606497    7.89851090122481    3.12396642462849
C        12.11924728335822    9.30812712425330    4.58799297530205
H        12.73960612450504    9.86905162391421    3.90572452104798
C        12.05245728480827    9.70073459111297    5.91539650909080
P        12.98864595873150   11.13873467306217    6.48597570029582
O        12.91503287350799   11.46889418436413    7.91261838914213
O        12.54170721352305   12.35780967558314    5.52364222800661
C        11.51519985400714   13.24078878925410    5.95547255267185
H        10.56966750707475   12.92482558673220    5.50054925799797
H        11.42209703883254   13.17759203385213    7.04483776012716
C        11.86488728622577   14.65698938133356    5.52766658622950
H        11.05673863968919   15.33074695520845    5.79837350550940
H        12.77817377233588   14.98423848307388    6.01800455753154
H        12.01510018724910   14.69346452709891    4.45168124985799
O        14.44861367534735   10.79159955209220    5.92896198869479
C        15.56687552544860   11.40867953190134    6.55495817487728
H        15.39809721044123   11.43483719898170    7.63721911215383
H        16.42010833369948   10.76016280562479    6.33444303331879
C        15.79982441727184   12.81515649120083    6.03109401335214
H        16.70785278783194   13.22635857750360    6.46472450693390
H        15.89259428963648   12.80067697999075    4.94793105100623
H        14.95659148471176   13.44609459475355    6.30014179041174
C        11.25387465111021    9.01435749628301    6.81668520070292
H        11.21388222889378    9.35403637142823    7.84076679961848
C        10.52931765984557    7.91926971685466    6.39133117908299
H         9.88893411408784    7.37922692641245    7.07700619487262
C        10.23001072650471    5.62970109106586    2.94081709101470
C        11.30234010713599    4.78251575319669    2.70240061896625
H        11.82416507486602    4.32148915971947    3.52843598458878
C        11.68196000251263    4.51345262628188    1.39792612438037
H        12.51103828472729    3.84739948564256    1.20850104406649
C        10.99925451141906    5.08633585840045    0.33817687398693
H        11.29933712155357    4.86833318844302   -0.67612105032137
C         9.92063606653467    5.92604136332356    0.57364792045379
H         9.38010104077540    6.35875776230105   -0.25538440037775
C         9.53259457772291    6.19276872025169    1.87181908879940
H         8.66564775001669    6.83126238217012    2.07833805637658
C        10.12293679427422    4.83116356734545    5.77948051723156
C        11.45469995748566    4.68403846868334    6.15822559471459
H        12.21158201267990    5.32643943936943    5.72806571222957
C        11.79732328608465    3.73094179621815    7.09925927142063
H        12.83027843303752    3.61234734128731    7.39218515931165
C        10.81827899301370    2.93346222734137    7.67207400999267
H        11.09294539527769    2.19116301253013    8.40689277935035
C         9.48965968602172    3.09353221720172    7.31381324611558
H         8.72841240182762    2.47862307564995    7.77073223040247
C         9.13977434465801    4.04432559385969    6.37180833132188
H         8.09777669166614    4.18158943863398    6.07690489753158

