97
CSD_code = OGAZIF | q = 0 | S = 0 | Stoichiometry = C44H42NiO8P2 | MND = 4
Ni        7.42636307613708    7.42552127973136    3.57051152249180
P         8.16724146278301    8.94912608999482    5.05116094085732
C         7.36054393902900   10.90188293910129    6.60566738933235
O         7.05146997359609    9.93759733148942    5.65507910875454
C         7.01528554782724   10.67877204637158    7.93946172254168
O         8.89076097784118    8.57571352742586    6.45016386664661
C         7.30964665545850   11.67341067727024    8.86246724880169
H         7.05115644611719   11.51591316660799    9.89981080391686
O         9.34828381097812    9.94457189668699    4.53396073562666
C         7.92633572638592   12.85214454452410    8.48083198989430
H         8.14966308929685   13.60726081419312    9.21948174901976
C         8.25127853195080   13.06092022597330    7.15276945891614
H         8.72656295362430   13.97942418303347    6.84329423560500
C         7.96755426730769   12.08412934947475    6.21363699675634
H         8.21095485201790   12.23204817980634    5.17259704886504
C         6.33525040884156    9.41105154418652    8.34841998600209
H         6.35019644376969    9.29494296762741    9.42924042944801
H         6.82283895685314    8.55448542980760    7.88724022049678
H         5.29830726003819    9.41533962043526    8.01118389586501
C         9.57054470677250   10.17111798531146    3.19447958156074
C        10.89346175644696   10.18638272473163    2.74703844209475
C        11.12035667412539   10.42391889165791    1.40010346854192
H        12.13701272362176   10.43464855815653    1.03481610503859
C        10.07103181672552   10.63081343905424    0.51970846603466
H        10.27365607492806   10.80404817129462   -0.52648092104592
C         8.76757449816608   10.61235358233573    0.97998719858463
H         7.94393425889016   10.77048083372489    0.30060500041253
C         8.51579822389133   10.38474267869511    2.32256044102865
H         7.50590011741245   10.37980615001263    2.71069154072881
C        12.00874090222269    9.92799567268407    3.71144396440929
H        12.97362506344703   10.02500464375041    3.22134315104972
H        11.92080417753883    8.92276088884603    4.12487866159612
H        11.95920376012715   10.62581748243471    4.54610070929583
C        10.16627242817989    8.04689160387075    6.48614130481784
C        11.11205189098774    8.69394902324278    7.28367831451366
C        12.38891346238822    8.15420675397687    7.34816759180421
H        13.13378023776781    8.64377553605075    7.95876655407945
C        12.72340704621115    7.01255861611177    6.63970813809727
H        13.72510608778904    6.61453319485011    6.70144079774184
C        11.77412922874655    6.38721477618767    5.85081481053151
H        12.02498991256501    5.49801616995035    5.29268980597660
C        10.49300536952264    6.90591641664862    5.77336278175583
H         9.73332607776297    6.42785903641447    5.17039242827314
C        10.73674374173806    9.93839179597414    8.02480134096872
H        11.59710655487591   10.35812076217466    8.53909809208579
H         9.95570054177098    9.72546081670210    8.75353726207234
H        10.33528259203964   10.67896511437080    7.33325694557005
C         8.94543112504206    7.03175857795501    2.65910661887127
O         9.95874660913595    7.09734585203342    2.13422499901247
P         6.68480001418958    5.90199882695012    5.05092423533141
O         7.80004073321292    4.91312354869373    5.65514736313061
C         7.49067360322793    3.94902990968126    6.60582554595794
C         7.83594973395686    4.17220865078941    7.93960773899626
C         7.54150748456572    3.17766701688014    8.86269264450928
H         7.80005238973514    3.33520582125989    9.90001754159870
C         6.92468943946398    1.99896895887444    8.48115568545467
H         6.70135793233814    1.24390149255474    9.21985645329721
C         6.59962825538852    1.79016823347762    7.15312493537052
H         6.12421141639397    0.87170314255285    6.84373700688092
C         6.88343818925737    2.76685920376495    6.21391317391346
H         6.63994411738283    2.61891524733822    5.17289945228197
C         8.51607831643174    5.43990486050553    8.34849106298904
H         8.50088745698628    5.55621371221922    9.42928778713113
H         8.02872925425124    6.29645914893321    7.88703742312078
H         9.55310436392821    5.43540513759697    8.01151594093753
O         5.96120998637197    6.27583506055823    6.44976047824940
C         4.68583660872886    6.80492878021324    6.48583985766514
C         3.74036155551036    6.15868079790550    7.28439930578010
C         2.46364567745954    6.69872153772268    7.34918752723898
H         1.71902404693074    6.20974936273828    7.96051160746832
C         2.12898064492898    7.83986919417979    6.64000226167579
H         1.12739179213462    8.23812318624877    6.70194117942653
C         3.07793366176979    8.46437175685193    5.85003582112471
H         2.82692449987619    9.35316262636003    5.29132537359985
C         4.35892350835899    7.94537468922734    5.77230310461009
H         5.11836645089914    8.42282094956936    5.16855181556055
C         4.11590460876205    4.91477319487469    8.02629265067609
H         3.25574759308619    4.49549287868922    8.54129281327180
H         4.89729005257387    5.12820751951030    8.75451286802705
H         4.51700520980955    4.17365362637008    7.33512315126846
O         5.50349173180915    4.90695396029911    4.53355422123681
C         5.28114547690858    4.68074037609611    3.19402753169361
C         3.95820742148319    4.66568042047454    2.74664245965248
C         3.73122910079538    4.42844407531639    1.39966686161566
H         2.71455210985374    4.41784306406667    1.03443311952655
C         4.78049088123749    4.22166526484332    0.51917253103594
H         4.57779822110478    4.04863504085210   -0.52703894962232
C         6.08397092996709    4.23992804264862    0.97939342428649
H         6.90756640453686    4.08190141408472    0.29993350868356
C         6.33583135085505    4.46722865248176    2.32200302811192
H         7.34575278255793    4.47201639147219    2.71007933510403
C         2.84298017051532    4.92393169854229    3.71114647791109
H         1.87807696194049    4.82722356124067    3.22102413084996
H         2.93107112170765    5.92901676943356    4.12490954025869
H         2.89241803902693    4.22582764018490    4.54557239118423
C         5.90795798112242    7.81956806565010    2.65819884245876
O         4.89478867577965    7.75508592620934    2.13292479419073

