74
CSD_code = OGEBUZ | q = 0 | S = 0 | Stoichiometry = C26H31BCl2CoF2N7O4 | MND = 6
Co        7.46130619466102    5.79076439666373   17.67843121004451
Cl        5.44841572054333    2.27519593578153   13.88856305748445
Cl        7.39210999124065    6.69129789499383   19.65428930877959
N         5.61885175075131    6.19306628924157   17.52237977657407
N         7.63553193960109    7.51933451160257   16.92092757220559
N         7.28655910083069    4.08213155466219   18.48214005411837
N         9.30029964693338    5.45861836175209   17.98879813689510
N         7.52639790446026    4.96752707144786   15.90076324201879
N         7.32435939427591    3.03247777070310    9.73205203944432
N         8.47351795685953    1.11517862652665   10.81910656261215
O         4.60652887144308    5.35953252475539   17.86610842460810
H         5.07718029148327    4.51902989009542   18.24424754890696
O         8.77411518644706    8.00296758393971   16.57624247707741
O         6.15795756998186    3.47562618269792   18.55912685024110
O        10.31359390636500    6.29338056297417   17.64786976955650
H         9.84397930888900    7.11439311745937   17.22912958411164
C         5.35431430061905    7.39847975996306   17.14332372811292
C         6.51649360181418    8.16225676023373   16.76925029895436
C         6.44022481612055    9.55744742936299   16.24041229233829
H         5.98229014255032   10.21699167558389   16.97524838150958
H         5.84987425107491    9.59541833460958   15.32592515889170
H         7.44980000083971    9.90425631353294   16.03164812569767
C         3.97665072857843    7.96265544014466   17.07669428593751
H         3.73775011577787    8.26294583731545   16.05787089308426
H         3.91089810234744    8.84181138560706   17.71484660515331
H         3.25959302146318    7.21942311789076   17.41432139822146
C         8.39722610053058    3.57104227782060   18.92305984594480
C         9.55535669118706    4.38446307722393   18.65802146709114
C        10.92071186525901    3.99547497097253   19.11117764200327
H        11.20459218547167    3.03650940422712   18.68087326223921
H        10.93260784022118    3.89890329208483   20.19510787216404
H        11.63672953295455    4.75547704177843   18.81073616790209
C         8.46999204360991    2.25479863014135   19.62635910098143
H         8.86771281511283    2.38334636763254   20.63138272747234
H         9.11213098716361    1.56013355838232   19.08647668819628
H         7.46638411895084    1.84061439657083   19.69174199926487
C         6.61925675581158    4.06356212126663   15.53368229981410
H         5.83775891258875    3.80886837604324   16.23697564268328
C         6.66082014538256    3.42559083806858   14.30370438424131
C         7.68812965770082    3.71764552078591   13.40505554393988
C         8.61744272145341    4.67293456682602   13.80159080632598
H         9.42956913414950    4.94033191744332   13.14404064677567
C         8.50151666750371    5.27156264705443   15.04091255562659
H         9.21091865123869    6.03048278993630   15.34090673624487
C         7.77755159270641    3.03575604668998   12.10136062242364
C         7.24492966206953    3.64523672120868   10.96804677489174
C         6.55965195272748    4.88473499862371   10.79966587477035
C         6.25682784361551    4.97260585622411    9.45659429239714
H         5.74009563328417    5.77540807101753    8.96797899121297
C         6.74118654712530    3.81768090277346    8.82220081382727
C         6.21231263780488    5.88969782535546   11.83962339136592
H         5.61876589422972    5.44029189928194   12.63498567447225
H         5.63547879898545    6.69267953883367   11.38725569004905
H         7.10750830931596    6.31771435685762   12.28962997059494
C         6.65876569753756    3.45339109844352    7.39318099285465
H         7.65681554312252    3.25112216117997    7.00695993129442
H         6.19318972942352    4.24891076995827    6.81894867366088
H         6.08534859974544    2.53369167850034    7.28120479880826
C         8.38374278949932    1.78378656205344   12.02529778224132
C         8.98750854918389    0.96581389514802   13.02587649375175
C         9.41268769335586   -0.17571617234251   12.37805068260423
H         9.91041702995488   -1.01559150346265   12.82198141378754
C         9.08327851593008   -0.05654252978376   11.01883006929399
C         9.13959920287911    1.24763976601562   14.47844535313003
H         8.17018602763543    1.26274565680008   14.97597873624919
H         9.62044155806391    2.21003719052975   14.64821798788729
H         9.74514660117463    0.46829745544577   14.93485981941040
C         9.33243268833056   -1.02046628581166    9.92775855325103
H         8.38587621620331   -1.32197337584133    9.48035540416169
H         9.85888663397730   -1.89468983866274   10.29929571313964
H         9.91477284243617   -0.54299995854322    9.14074662039866
B         7.96737458827741    1.65582037343585    9.46632207883115
F         7.03085845222459    0.79242192730427    8.92876808183079
F         9.02861151706870    1.79134478948341    8.58735654114470

