109
CSD_code = OGEDUZ | q = 0 | S = 0 | Stoichiometry = C38H66N2NiP2 | MND = 4
Ni        1.96274079116434    2.20550656364975    4.58584805486510
P         3.08427708065309    1.71008758528181    2.75573281727178
N         4.29719772207176    3.67127117465850    5.72894943198818
C         3.38241366977605    3.12940553694486    5.28016996421446
C         2.09865223290219    1.70964044329657    1.18006303180792
C         1.26435759159103    2.98419288250207    1.04468943021678
C         0.25308118436177    2.80903216577461   -0.08448483117646
C         0.96377494786049    2.48378728383086   -1.39593569097829
C         1.83827750726678    1.24147201238195   -1.24530693375920
C         2.85054282845267    1.44056206944768   -0.11796019606041
C         4.68768835333059    2.63363955608106    2.51049123314556
C         4.39766013795469    4.11179966082161    2.25009571008079
C         5.67124573734151    4.92849527507582    2.44022898275168
C         6.76231400091487    4.42820784444939    1.49797201196763
C         7.01545576524478    2.93804344540162    1.70859953849213
C         5.72857482489899    2.13486593763979    1.51102014679641
C         3.65691686828901   -0.04724819301538    3.00283982119056
C         3.95308864398719   -0.16324995135424    4.50227861211013
C         4.39138157095991   -1.56791049404362    4.89465230478408
C         3.33775410653811   -2.58792428248636    4.47830301406649
C         3.09326863905900   -2.49626089176410    2.97643034787620
C         2.62477304708079   -1.09506310792643    2.58856874765382
H         1.38477119191063    0.89163774444492    1.34574136132709
H         0.73689290820157    3.17485792698607    1.98431572998103
H         1.90276162685723    3.84387163021155    0.83254225334654
H        -0.42971278858851    1.99682960687917    0.17318664500838
H        -0.33785280976497    3.72034271039022   -0.19890915987253
H         0.22847106134611    2.32571281233358   -2.18740154447966
H         1.58958779515177    3.33131827496311   -1.68777992694761
H         1.20761855412408    0.37841004555845   -1.02017368920741
H         2.36193288705778    1.03912474223751   -2.18254394791286
H         3.48009399938485    2.29620460053533   -0.36714900159899
H         3.48891337119659    0.55919663030767   -0.02311607751351
H         5.14282297673881    2.56661836131165    3.50957724573911
H         4.03234703381845    4.24584670560786    1.22924956808058
H         3.62401235400655    4.46259073003270    2.94072768272440
H         5.46967550600783    5.98479170017260    2.24941523693180
H         6.00226996190765    4.83102041866878    3.47583394921767
H         6.45344796780709    4.59895200034151    0.46315536419053
H         7.68481500203109    4.98747336137561    1.66586666087491
H         7.77703812055918    2.58789468314363    1.00781802842593
H         7.39136525662410    2.77553039033094    2.72124813589865
H         5.94510920495356    1.07506369651580    1.65508210946492
H         5.38421905662800    2.27218923500273    0.48667502444283
H         4.57898546195825   -0.21487742181448    2.43464560408468
H         4.72526485702760    0.55732147984624    4.78775508515899
H         3.02647300580695    0.09270937590702    5.05025397473881
H         5.33860577058052   -1.80190049488861    4.40134636339452
H         4.55657135776976   -1.61350865317383    5.97325449720417
H         3.66448658864031   -3.59500951138652    4.74513496657041
H         2.40471771793432   -2.38451639935126    5.00880967495971
H         4.01836086774118   -2.73338125219855    2.44353927508811
H         2.33828523988921   -3.22537552071180    2.67565699484035
H         1.67234090341015   -0.88689318917392    3.08167805299689
H         2.46503073921192   -1.06236374829664    1.50926540707879
P         0.84089253032976    2.70183505013534    6.41549500594016
C         1.82645496168964    2.70228998118324    7.99119901507212
C         2.66062411948684    1.42765492339274    8.12668696023536
C         3.67180170359260    1.60267268062499    9.25597686905331
C         2.96096807430894    1.92795826208022   10.56734688059519
C         2.08662923024843    3.17038726721232   10.41666421005998
C         1.07450200926510    2.97143264956421    9.28918071939742
H         2.54045103355472    3.52020671523083    7.82555223118069
H         0.44481527741418    2.11584755331770    9.53822737231019
H         0.43623128406386    3.85286564701079    9.19427352083038
H         2.71742695071696    4.03337009098939   10.19160916662490
H         1.56289788042665    3.37278711700833   11.35385190425442
H         3.69618630287638    2.08592641483812   11.35891212704352
H         2.33502167675335    1.08048836805554   10.85908341131281
H         4.35472714997596    2.41480702914760    8.99843256131135
H         4.26262320010205    0.69129010567418    9.37044886909480
H         3.18816916022948    1.23691460294322    7.18711643297916
H         2.02210581997785    0.56804484055196    8.33877300023329
C        -0.76273962521633    1.77876279567824    6.66083315246876
C        -0.47290960244324    0.30059063570481    6.92136502042696
C        -1.74650154726775   -0.51603787637138    6.73114528824160
C        -2.83769115309256   -0.01549155513036    7.67312722829212
C        -3.09069625640608    1.47467240000033    7.46230980354386
C        -1.80378857573659    2.27776613648836    7.66007772505851
H        -1.21774414919796    1.84575605622185    5.66166431334972
H        -2.02022939812497    3.33756637528606    7.51584170135922
H        -1.45966846648821    2.14058041138074    8.68452681511676
H        -3.85242359580614    1.82489964049599    8.16290267319052
H        -3.46637970056259    1.63714211491613    6.44956838406613
H        -2.52901482223138   -0.18612387550335    8.70802034622097
H        -3.76021045857343   -0.57469674663126    7.50514862056364
H        -1.54503262689301   -1.57230789282887    6.92221396551333
H        -2.07733160332064   -0.41874876553195    5.69545873689659
H        -0.10766714057532    0.16657403651145    7.94224660210214
H         0.30079804844135   -0.05023434278730    6.23079182674837
C         0.26842112818367    4.45926445374565    6.16831725987397
C        -0.02776681323612    4.57527557772782    4.66889671345451
C        -0.46591604722513    5.97996919592166    4.27646692029974
C         0.58783758071008    6.99986026969034    4.69278760430333
C         0.83232933870663    6.90828837987098    6.19465618678908
C         1.30061069608026    5.50701942921287    6.58256825762643
H        -0.65363804395674    4.62696752278584    6.73649957863528
H         2.25306042147275    5.29867459279719    6.08954068116177
H         1.46024997617401    5.47436681764226    7.66189257025834
H        -0.09276139565213    7.14549967030108    6.72752489728934
H         1.58737017503803    7.63734089262256    6.49543221218757
H         0.26119786535106    8.00696600864047    4.42591080117906
H         1.52084373607012    6.79634036909656    4.16226853877481
H        -1.41307592213796    6.21405727770572    4.76985372118741
H        -0.63118500083816    6.02558373555417    3.19787815064949
H        -0.80007125147894    3.85482031075178    4.38347176012057
H         0.89875054260299    4.31912546920895    4.12090959200130
C         0.54316864250678    1.28214534902442    3.89106393477672
N        -0.37158331952020    0.74095064209825    3.44154106519488

