63
CSD_code = OGEKUJ | q = 1 | S = 0 | Stoichiometry = C31H25BrFeN5(1+) | MND = 6
Br        5.28568889230722   10.79665232954648   24.16469134230500
Fe        7.00556901489325    9.67856590077464   23.03758432328686
N         6.47595337856666    8.03636205948956   23.82758851228732
N         8.69170436726894    9.82227626337223   24.26010115000996
N         7.72816531968203   11.19540755733701   21.93345594880192
N         5.73779888914797    9.37177108614665   21.60588347656951
N         8.14596257978430    8.54542660568218   21.90253002260305
C         6.64906166765742    7.02032919086085   22.97143477567140
C         9.01270285629160   10.69581669437309   25.25240238102975
C         5.87622626000371    5.42912821512860   24.56223302068492
H         5.63440404561577    4.41736495903031   24.84455300048842
C         6.03014564996265    7.76376012529585   25.05038862372645
H         5.90043774266343    8.60514718940576   25.71094633764398
C         7.15517943243428    7.49098469477188   21.63484676645130
H         7.54351936845078    6.67344471720616   21.01428468324212
C         5.72003619301935    6.47825448370252   25.45583941489381
H         5.35275144661488    6.30695640345531   26.45388401584022
C         3.95804861439673    9.72679220382661   20.07025824422312
H         3.16858009438483   10.37197028493380   19.72264871568674
C         6.35782876247350    5.70815652821069   23.29032243105410
H         6.50645808673677    4.92502654959825   22.56360351097802
C         4.75650118445372   10.12976924564548   21.12580992397919
H         4.59587192112712   11.07771684068455   21.61405037473543
C         8.29534291497817   11.52365217251207   19.62760357611752
H         8.63652420508470   11.07055805093763   18.71016079284219
C        10.36313181626682   11.09049141166315   25.49070732687600
C         8.15838523293868   10.72977508660921   20.77544301507494
C        11.03495484327295    9.50725838389457   23.83476606977465
H        11.78701434029581    8.97484801968576   23.27428162391872
C         7.53728656090948   12.53725318930149   22.05943363301220
C         5.98112487690667    8.19669813816703   21.01262887459971
C         9.68228325565124    9.20729153123467   23.63455690770845
C         7.32107383168385   13.10487709950142   23.32707948534915
H         7.36753446700434   12.47225423319342   24.19405776206674
C        11.37681299637178   10.48714466964014   24.72811177966749
H        12.40594428042004   10.77732666482802   24.87519458477012
C         9.64643529933550   12.53973543945876   27.28035995203832
H         9.86679475678904   13.25914113883868   28.05336222096737
C         5.22444131948212    7.70954424726816   19.96459559697357
H         5.45075484184784    6.74824387173843   19.53063815671746
C         8.54080925480998    9.27487675248549   20.69773418082161
H         8.08366960742788    8.82577202006434   19.81006294590980
H         9.62742125211296    9.22636838370173   20.55798259760181
C         7.07893429741427   14.44642575950766   23.45605412857210
H         6.91212846003984   14.86410017391690   24.43616626360595
C         7.59531201237317   13.40290430886487   20.92875230837324
C         4.18006666076833    8.48890714278930   19.48657472640617
H         3.56559858682422    8.13960013262344   18.67260430363408
C         7.04712386554812   15.28431198096198   22.33201191432899
H         6.83329342851384   16.33452885848598   22.45453114303946
C         7.31858095593023   14.77493528464352   21.09250057678274
H         7.34439659465503   15.41209989029797   20.22143908158633
C        10.64644722563411   12.03721721691435   26.49682749278006
H        11.67335160682871   12.33557689361449   26.64505782778706
C         8.01699927622808   11.19847458629120   26.11213916939181
H         7.00514193358567   10.85621255840511   25.99427369453363
C         9.28552252238956    8.10361324374941   22.69328338524968
H        10.12971344970713    7.79077640677448   22.06825121062643
H         8.98726290525995    7.24518425346206   23.30343170872598
C         7.95917370437057   12.84889034308770   19.68794500460142
H         7.99684588538706   13.47602855902827   18.81046544549628
C         8.32828159353527   12.09454107326290   27.09895257981644
H         7.54848931347871   12.45968070011453   27.74863595566111

