63
CSD_code = OGELAQ | q = 1 | S = 0 | Stoichiometry = C31H25ClFeN5(1+) | MND = 6
Fe       12.63240717238037    0.52096574301051   21.70602197921382
Cl       13.85438410654969    1.46893815752205   23.23556901610398
N        10.71927709847429    0.51125138599818   22.47295635328631
N        13.10033914994312   -1.13683384515340   22.49068217759156
N        11.88854922569267   -0.61237374966983   20.30396115286138
N        11.81577099205070    2.07560860041889   20.62527423698057
N        14.19469623456022    0.43018759387636   20.64388317503436
C        10.12419453516992    1.40792414411566   23.30473655988106
C        10.88932354755081    2.11198463788681   24.25250966392574
H        11.94490124221164    1.91105719993774   24.31167218940125
C        10.15741755597932    2.22541358344724   18.89365672874150
H         9.69549522230107    1.74999157308254   18.04295064348191
C        11.19109250393698    1.56987523510083   19.57362812266429
C        11.64764955682612    0.20920128101325   19.12418321130806
H        10.91421966281294   -0.24710057850883   18.44887872774351
H        12.58324774738647    0.33102169734563   18.57140984529337
C        14.23009928210955   -0.69754064902551   19.91842138775470
C        13.27742535821632   -1.45384467594376   23.76873197714325
H        13.14185900508933   -0.65084009882000   24.47541424652654
C         9.74209651356479    3.45343166432480   19.33373502021139
H         8.93012983043660    3.97562362616884   18.85092121394847
C        13.25516703142888   -2.09215872364492   21.56190456059118
C         7.94382055214078    0.89663104689464   22.35571461615494
H         6.87874714729221    1.06148010214284   22.29602232487225
C         8.56044812303511   -0.04778634054661   21.57980044264371
H         7.99857328512808   -0.66537297897120   20.89717635408822
C        15.28065715560755   -1.01874253404205   19.08239104691095
H        15.27210165138584   -1.94134202742017   18.52368103470844
C        16.33729694457942   -0.12251415110493   18.97881971369931
H        17.17565258348390   -0.34103094282332   18.33731867885582
C        15.19635541188276    1.29554212932929   20.52898868375493
H        15.12024557785927    2.18558439267468   21.13284664808799
C         8.71939650003942    1.65179747928824   23.25158353670184
C         9.94984090032083   -0.19973995281428   21.66405374034758
C        10.40015307208251    4.04132749192784   20.42717961010611
C        12.17224715024809    3.94076488387121   22.09210549211528
H        12.99373443541954    3.41026807519156   22.54148014684099
C        13.01424319241458   -1.55104543493348   20.17568779518705
H        12.86003509788560   -2.33195294577907   19.42156555863125
C        13.62579182696571   -3.38563213964259   21.87075447341819
H        13.74704459026810   -4.12041023549211   21.09048779621004
C        10.65433723849740   -1.20907804463005   20.79974116821146
H        10.89589181180195   -2.07709989038353   21.41928982050188
H        10.00508888846168   -1.54746266968341   19.98357111340481
C        13.83028725025022   -3.71076239830689   23.20597990572718
H        14.12248311700224   -4.71038593005515   23.48433325128799
C        10.30183489065819    3.03621262735824   25.07309357446832
H        10.90408327883985    3.56364242494895   25.79591018121026
C        13.64393962351230   -2.72789399760611   24.16643283842031
H        13.78747219196400   -2.94134537706900   25.21255339310069
C        16.28521230166405    1.05530190975710   19.70909389732673
H        17.08169346313958    1.77840061187299   19.65181445841045
C        10.73609725592874    5.87539115149878   21.95540442431755
H        10.46573348980035    6.85237812566429   22.32488754815168
C        11.46849420605306    3.32279261936319   21.04219982658582
C         8.92764772739969    3.30767884312562   24.99133750099087
H         8.48791353430049    4.04713036824229   25.64245684196916
C        11.81249802065380    5.18521410637445   22.53325045503080
H        12.36655239706138    5.64450360455101   23.33664233300864
C        10.04617265840647    5.31468798426531   20.91809161872767
H         9.22831693523257    5.83751843657931   20.44533572613169
C         8.15047591043047    2.62337605985656   24.10015832777324
H         7.08734603623495    2.80078971404651   24.03656191221226

