63
CSD_code = OGELUK | q = 1 | S = 0 | Stoichiometry = C31H25ClFeN5(1+) | MND = 6
Fe        7.10277658447528    2.73165037743735    5.15587864780883
Cl        6.25403743087855    1.75942859539724    6.91285329498872
N         7.44161739242119    3.51651245199189    3.40297705312804
C         5.25808205441014    0.95789893759488    2.03827313772332
H         4.90181481894131    1.35940211822938    1.10266713456399
C         8.53990898300907    2.79720114745841    2.77122631453138
H         9.04047326423506    3.40375120365350    2.00710995635343
H         8.15061200508152    1.89992655506467    2.28105135939891
C         5.88856513608101    1.77524025064653    2.95513330454692
N         6.34085634965609    1.33146578003637    4.13729877346983
N         5.47212291142882    3.68319787094076    5.02239322488207
N         8.13763400112732    4.35547997304205    5.88285592616841
C         8.51564360852190    5.10851568903170    4.86260241723797
C         6.12291784915264    3.25624041098253    2.80210831482451
H         6.02741512825684    3.61015134748910    1.76858367696713
C         9.55049990210398    6.04998788656393    4.93079341294781
H         9.80261998748399    6.62638916428924    4.05481701863387
C         7.75356982931597    4.92896216769015    3.57863283594658
H         6.82256466010066    5.49755278345067    3.65976239287937
H         8.31885879225226    5.33280486131049    2.73031187770833
C         9.36138316716915    1.00576960837821    7.15379687903160
H         8.29636164108578    0.99862755285338    7.30682287062354
C         8.32795734766044    3.82792064239947    8.21696369836835
H         7.49675658527787    3.15208389105251    8.11622883064176
C        10.21224318824367    0.53381650280860    8.11638119815340
H         9.80798995525593    0.15093511736494    9.04022309129888
N         9.00934255225408    1.97271870772357    4.98454340862574
C        10.22721832202759    6.21519597779501    6.10886853717084
H        11.04205419886932    6.91811204186646    6.19283279001498
C         5.10235406597077   -0.38640034641240    2.35245123121398
H         4.61180920579445   -1.05365232794323    1.66235237385774
C         8.75736627739294    4.53733662258754    7.08045986170218
C         6.21000263236802    0.04129019561717    4.42761017551413
H         6.59030514191786   -0.26537906795155    5.38893315107651
C        10.88867680092671    2.34741322349093    3.53458818881097
H        11.22781623761330    2.67725442531755    2.56538193959866
C         5.11568744860447    3.86649047224514    3.74239426653708
C         4.68529304274709    4.16423369976333    5.97918259504273
H         5.01575791459886    3.99183340227497    6.99100578566830
C        11.60126250697114    0.53230371657406    7.91870087026760
H        12.25295904984544    0.15616895341591    8.69199486980072
C         3.94711899083577    4.50182834340213    3.37226105037889
H         3.69584667500075    4.61941582984930    2.32991538125204
C        10.03091549834269    4.88564995558284    9.56096261731999
H        10.50822378155143    5.00410497413480   10.52134658778140
C         3.11469409612685    4.98483491808487    4.37413398186006
H         2.19237365501886    5.48300707264588    4.12271339821457
C        11.27237332341937    1.47729091384086    5.72500524514148
C         9.83571107037751    5.46044625500873    7.22757840781230
C         3.49880953032431    4.81811175656120    5.69632214886253
H         2.88382837742904    5.18280076770235    6.50212960091250
C         8.95061641461810    4.00102389055910    9.42335211787151
H         8.60180008229310    3.45252286192790   10.28416707096427
C         9.86118383045818    1.50282958974540    5.93625491416466
C         5.59550337632996   -0.84824240855471    3.56370275474463
H         5.49938609507058   -1.88448334278922    3.84213018283548
C         9.51818294882250    2.35650441967606    3.82511159281542
C        12.12040051888830    0.99371501751605    6.74221178678122
H        13.18489315603848    0.98596512244935    6.56149433695087
C        10.46244955029339    5.60437630578695    8.48224918187143
H        11.27916614489782    6.30519434013348    8.56991822579845
C        11.77200180215228    1.92354755750696    4.48981953972245
H        12.83563311017910    1.91712327570736    4.30597318821152

