29
CSD_code = OGELAN | q = 1 | S = 0 | Stoichiometry = C8H14AgN6(1+) | MND = 2
Ag        0.83749141672270    0.71535764471397    1.98571927243851
C        -0.79557776563089   -1.35300735985061    4.42959005658617
N        -0.36254772266064    2.14417749027724    4.58821799166038
C        -0.15641708197994    0.99394831495099    3.89793740681099
N         2.40115565639431   -0.67111162826778   -0.44398939658970
N         1.99359675952855    1.35722342964152   -0.89393901328874
C         1.82319991463284    0.44490735307204    0.06803362330453
N        -0.72028380009363    0.05891493244238    4.66901771202644
N         2.63797421528772    0.87364951636574   -1.96203223649088
N        -1.25941048428537    0.56045107250556    5.78576793575746
C        -1.03645734910341    1.83253144382125    5.72743423914036
C         2.88172157349233   -0.36372799365238   -1.67853737927094
C         1.57637460038847    2.72929204377341   -0.89473596281793
C         2.49243236978726   -1.95721190112294    0.18944356150336
C         0.04029273136582    3.46467759307405    4.19090821322197
H         3.39012970436170   -1.04737409397866   -2.32599075716574
H        -0.38836281051806   -1.57446614477708    3.44091439011724
H        -0.23042630219856   -1.88920673194082    5.19278784285281
H        -1.34119241948222    2.53789718481897    6.47220119051014
H         1.01707930177601    2.93875201445222    0.01946152150816
H        -0.83451983621602    4.07485925297720    3.96034058103801
H         2.08174700598290   -1.88866660568758    1.19924519238392
H         0.67329226941875    3.39375749382845    3.30335925143672
H         2.44904995528020    3.38037317346656   -0.95427787558482
H         3.53390180872181   -2.27494860262394    0.24823647978617
H        -1.83531749103000   -1.67528807777700    4.48256491860526
H         0.94744272875527    2.91770731395149   -1.76486345712022
H         1.92984486657782   -2.69976657166435   -0.37801721976433
H         0.60138618472983    3.94389844320848    4.99330191740548

