46
CSD_code = OGEMEU | q = 0 | S = 0 | Stoichiometry = C20H18N4NiO3 | MND = 4
Ni       -5.40075815759814    6.54149294825969   12.62612131059291
O        -6.66040917691923    4.73075882303262    7.90533053369257
H        -6.58085681707138    4.60351674379972    8.88403639261905
O        -5.33409339248466    7.31936619897412   10.92290049252224
O        -5.51046556914575    5.73043976253292   14.23914565659982
N        -6.13384078146772    5.27485649397207   10.38075926115495
N        -6.03560604090663    5.07909369068255   11.73317422757855
N        -4.51472574807583    9.25623140400331   12.65819081008876
H        -4.72882399762239    9.20423179906421   11.66832523747315
N        -4.70652393963998    8.17264822800445   13.41344067183773
C        -5.77836115074362    6.85966793432701    8.61514347711836
C        -6.23391727627655    5.97034506545044    7.62390589668134
C        -6.24459580096888    6.38897497496998    6.29350137534328
H        -6.59725167341537    5.69443684223601    5.54709818470887
C        -5.81519748628539    7.65301378232297    5.94697008883624
H        -5.83081090755221    7.95697568851628    4.91078393585762
C        -5.36368452622551    8.53192525720853    6.92171104957761
H        -5.02636874631462    9.52065313962904    6.64959607131180
C        -5.34842609598125    8.13219286214837    8.24052239194330
H        -4.99809064608342    8.80147664842470    9.01233729047204
C        -5.74619815745849    6.47220583666710   10.02842722307220
C        -6.90741178079150    2.87039922170692   11.24944768557925
H        -7.77811466209177    3.25404659341888   10.71978237298434
H        -7.17504904336201    1.95672929486214   11.77054141273257
H        -6.14055896282296    2.65441720796406   10.50699629548648
C        -6.40384625532835    3.90465749413526   12.21215171765482
C        -6.33563121457181    3.61485584082329   13.58214956042078
H        -6.67190717513395    2.64699740402147   13.91169325374259
C        -5.89366324367658    4.53659789870555   14.51945213237064
C        -5.87638882159275    4.17965718895900   15.95783775729219
C        -6.10567822902351    5.18061108852493   16.90029377307057
H        -6.30327852096616    6.18432683282988   16.55423490546028
C        -6.09910447598231    4.88975109075467   18.25073800799988
H        -6.28667963067731    5.67243788992903   18.97146919125091
C        -5.85199328598620    3.59610895489872   18.68015192475325
H        -5.84432988522098    3.36696009926416   19.73556057871817
C        -5.60809319662941    2.59789385899697   17.75111536304667
H        -5.40356402100492    1.59061419628396   18.08376086817924
C        -5.61954578441192    2.88387955609893   16.39837348616065
H        -5.40525992745859    2.10337696357165   15.68436984966853
C        -4.33462396752087    8.49796968116912   14.64385880107609
H        -4.39052800507738    7.78544095387394   15.44336160197819
C        -3.89449969867860    9.82323041877275   14.67357605602721
H        -3.53355348111547   10.36757045682284   15.52083019114122
C        -4.02505554840238   10.27434753701565   13.37805235927241
H        -3.80583509423498   11.22851815237330   12.94347927484850

