144
CSD_code = OGETUS | q = 1 | S = 0 | Stoichiometry = C78H62OsP3(1+) | MND = 7
C        -5.30187817005782   -8.51676524878436   15.76237187612837
H        -4.76310826179415   -8.08027968289709   14.91613143998257
C        -4.54018427940448   -8.78456615557917   16.86370378157484
C        -5.20100811671325   -9.28546259592017   18.03550499067164
H        -4.65985928158962   -9.48787085991169   18.95706322796002
C        -6.54879523640383   -9.41973507100693   17.86018656150418
C        -7.49430390035986   -9.83826566327942   18.82153701529447
H        -7.21856729612490  -10.10367866811480   19.83529242584664
C        -8.79200257609247   -9.85733963153356   18.38588747491090
H        -9.59810104193747  -10.14976427510843   19.05151136422711
C        -9.05944650779411   -9.48688305237247   17.03932746020780
C       -10.41700408075970   -9.52630410767884   16.66054906375143
H       -11.14330715648191   -9.81003264061297   17.41869210562266
C       -10.91298017575812   -9.22781585017447   15.40328532736410
C       -10.04329626528724   -8.86205991036729   14.32962148645742
H       -10.48399018829534   -8.73719886525486   13.34622640813462
C        -8.71423137679134   -8.78464987300606   14.47304014620550
C        -7.53447668330053   -8.57762235633505   13.76860107447153
H        -7.10449016848313   -9.45745083025139   13.27650398816844
C       -12.34740999673715   -9.32726307712342   15.12789180878404
C       -13.11225307173106  -10.36412047896614   15.66348313501136
H       -12.63694753644351  -11.11957334173403   16.27293603536785
C       -14.46412385745283  -10.45384468620610   15.39261585193652
H       -15.04106439681175  -11.26797186305684   15.80562507724958
C       -15.07944114525248   -9.50468452624136   14.59273654786752
H       -16.13657387115491   -9.57315890563523   14.38625927726568
C       -14.33125193579162   -8.46918993749996   14.05639651794183
H       -14.80657801517123   -7.72576234066422   13.43372885936680
C       -12.97638476702284   -8.38485324145026   14.31292278844939
H       -12.40107983513747   -7.56788961872674   13.90128997265052
C        -5.32925981854077  -11.90170528958404   15.02744267101830
C        -4.92476194396647  -13.20165394160988   15.31923773468682
H        -5.55727395083115  -13.84672977102760   15.91089197369666
C        -3.71934544823245  -13.68186015884713   14.83972084392529
H        -3.41975821143431  -14.69375813332769   15.06795642389044
C        -2.90790726141415  -12.88089056022609   14.05392290305219
H        -1.97139203788146  -13.26111683287207   13.67539995647168
C        -3.31401178355142  -11.59588801204471   13.73800412423165
H        -2.69589777357939  -10.98325963759951   13.09671559380624
C        -4.51738568778415  -11.11198110148298   14.21967495386282
H        -4.85326349736264  -10.11941485686969   13.95706963275348
C        -7.35087621127411  -12.42192774627558   16.90176006723414
C        -8.49445716232123  -13.20600564046437   16.98255087447217
H        -9.21442693415014  -13.21291932974319   16.17961741402810
C        -8.71265768273088  -14.01220898898213   18.08789760617102
H        -9.60542607050335  -14.61780954219863   18.13498651567248
C        -7.79634614309726  -14.04940152671704   19.12336697865619
H        -7.97377377157525  -14.67607226176332   19.98402294737622
C        -6.64235103755866  -13.28647769370157   19.04247553789293
H        -5.91296372671477  -13.32099500963136   19.83863134032097
C        -6.42476841522833  -12.48023211699157   17.94335796559467
H        -5.52100975513305  -11.89222798689819   17.87392715328759
C        -7.97702168388742  -11.94746482080520   14.14761835739042
C        -9.36474071484335  -11.86081980309295   14.24928313307390
H        -9.80231745493459  -11.42292131504349   15.13334934907012
C       -10.17661403420450  -12.32407308111283   13.23150753445933
H       -11.25012156896421  -12.25105100844203   13.32735123024878
C        -9.61215896816936  -12.87144683046200   12.09097860047357
H       -10.24300488104485  -13.23128207766564   11.29266589677255
C        -8.23482622925215  -12.95124548251505   11.97719502230963
H        -7.78952327741869  -13.37383308921006   11.08888412618949
C        -7.41762787214328  -12.49053181066349   12.99529507731092
H        -6.34540773928164  -12.56058012985403   12.88478784830027
C        -7.14437635113324   -7.31798570979258   13.14035000797726
C        -7.97244230715047   -6.19208773380948   13.17762788065435
H        -8.93616651329553   -6.26427824141973   13.65914773873722
C        -7.57480557606038   -5.00453999242353   12.59758089265318
H        -8.22979911232898   -4.14668203470052   12.63772552072816
C        -6.34694115324332   -4.91076944110449   11.96098483192985
H        -6.03691859812483   -3.97952640333025   11.51178112060680
C        -5.52947124190199   -6.02689890512692   11.88633503700384
H        -4.58069376005185   -5.96742806993678   11.37187186441262
C        -5.92503618037535   -7.21901606976476   12.46128300955790
H        -5.28610205612637   -8.08908985929071   12.38401079833254
C        -7.95515322035355   -6.72015291366270   18.67749729105033
C        -6.90819370831843   -6.96559892529806   19.56642760708004
H        -5.90868170143522   -7.11545303459791   19.18412734707108
C        -7.13374605374688   -7.01858477315321   20.92789134665871
H        -6.30872891299271   -7.20387115551602   21.60069815724536
C        -8.41348906734639   -6.83860726051740   21.42758783195699
H        -8.59297563993705   -6.88482311673138   22.49096932678418
C        -9.45813757355069   -6.59414327144963   20.55440360772478
H       -10.45751121216088   -6.44597157508588   20.93547016167800
C        -9.23343891691444   -6.53466081978431   19.18902948860768
H       -10.06234586741771   -6.33121382537802   18.52921278493668
C        -6.17468121781145   -5.56183965672127   16.80696425912298
C        -4.12843893690131   -3.69460618190246   16.48043198896880
H        -3.33682963595199   -2.97086479159977   16.35831720036195
C        -4.82259915202252   -3.76887028084214   17.67666752364944
H        -4.57670350302336   -3.09703973982734   18.48593723617964
C        -4.47535937284591   -4.53439472580214   15.43504670411990
H        -3.96920696856000   -4.46270700696837   14.48396751076410
C        -5.48805191008508   -5.46041375078139   15.60024342947528
H        -5.77731936456927   -6.09115625910290   14.77609637657133
C        -5.84791220548876   -4.68595271181456   17.83922821834977
H        -6.39875703450670   -4.70488956530992   18.76782840106510
C        -8.89761337294920   -5.60977498791340   16.25347539256022
C        -8.65365992013753   -4.29687774386842   15.86274323876939
H        -7.65643862875308   -3.88676803730156   15.89843810540950
C        -9.69271754367109   -3.50110903823239   15.41225653002165
H        -9.48952815715860   -2.48409883669901   15.11112316871394
C       -10.98349746631683   -3.99709363893490   15.34792050829392
H       -11.78902075468617   -3.37055388190816   14.99619276979739
C       -11.23461030639588   -5.30277591320365   15.73596868900454
H       -12.23849855317258   -5.69976680153547   15.69482978867641
C       -10.19835650989626   -6.10363601511239   16.17900651379705
H       -10.39108590334613   -7.12570576592776   16.46542947017229
C        -1.86958831824399  -10.10520538841273   16.73029337814985
C        -2.43713144168783  -11.27054995479320   17.23517249643104
H        -3.40830752461212  -11.22992460137857   17.70638352045828
C        -1.75836715841844  -12.46943235159883   17.12701364265161
H        -2.19676715741177  -13.37207739333429   17.52401329822688
C        -0.51780571356870  -12.50861508458544   16.51047632069782
H         0.01182021244873  -13.44503244470697   16.42630732578851
C         0.04621960092692  -11.34892354103862   16.00195472174145
H         1.01280556428667  -11.38232461526324   15.52276317448345
C        -0.62314763561512  -10.14377101620041   16.11178213418295
H        -0.18352011551769   -9.23511901131875   15.72379048218700
C        -2.19052507819969   -7.43072412407658   15.62934581595269
C        -1.66546064922996   -6.17396821915681   15.90570129305684
H        -1.56836430780386   -5.83739167860438   16.92797022195874
C        -1.25853304367099   -5.36202926323574   14.86140637386518
H        -0.83905124235200   -4.39036637146804   15.07273681341097
C        -1.38884057206318   -5.79092607749893   13.55019230319547
H        -1.07452750640091   -5.14991104036142   12.74072710308805
C        -1.91180651111933   -7.04512863223879   13.27496594050264
H        -2.00351391258817   -7.38163619809941   12.25325356843934
C        -2.30525894075610   -7.87036847221868   14.31120184100014
H        -2.68240911275169   -8.86430148630382   14.11491883954137
C        -2.31707294235155   -7.84494420685989   18.53509589927274
C        -1.33302551720415   -8.40059198755070   19.34432773749555
H        -0.78621505372990   -9.27226395804253   19.01229281442059
C        -1.06406373065087   -7.82729289324447   20.57525544624142
H        -0.30060057293374   -8.25307823503573   21.20822493750794
C        -1.77194171102540   -6.71238054984808   20.99587480908750
H        -1.55803419874822   -6.27281379698479   21.95794365518037
C        -2.75483270387785   -6.16031990753000   20.18732533802465
H        -3.30767253647639   -5.29351033645132   20.51620205046443
C        -3.03082850011257   -6.72424171468182   18.95676547647317
H        -3.79439685445860   -6.30578030257571   18.31340445062996
Os       -7.32638597835839   -8.95728426405504   15.99262913745141
P        -6.98046126944790  -11.26743419522531   15.52605442360524
P        -7.58846239242580   -6.73207164797992   16.87788880213915
P        -2.75896639045588   -8.54134363164853   16.93014725766650

