130
CSD_code = OGETAY | q = 1 | S = 0 | Stoichiometry = C68H58OsP3(1+) | MND = 7
Os        6.60780122408430    1.55267065400642   29.93008330886341
P         6.67314937351896    1.90705687629678   32.29429121020370
P         6.28287671520516    1.24134732048012   27.60243192627491
P         6.68934694229980    6.17823996183884   29.24947114786146
C         7.30429372363705    3.50258258301732   29.66708483198736
H         8.32509915291312    3.89623209929945   29.60346446298398
C         6.31975078920512    4.44778530222818   29.55749274086012
C         4.95556458046682    4.01226296890061   29.63614424699309
H         4.12255433424300    4.70632506591906   29.56736110611524
C         4.85556410230687    2.66333574744738   29.81997608558868
C         3.65907615125724    1.91517074034771   29.89253148318111
H         2.68017969179989    2.36933076630283   29.79020396988887
C         3.83118511410743    0.57887557508804   30.14111565472085
H         2.97935901967491   -0.08749909250536   30.24218750721029
C         5.15748735097894    0.09053597346031   30.29520151660370
C         5.26421655094964   -1.25310955134283   30.71242400331075
H         4.34310150393829   -1.78986623646318   30.93017831094102
C         6.43682070167380   -1.96155324991248   30.83361389199348
C         7.69152008884963   -1.38594159614914   30.47704735810657
H         8.55694140454992   -2.04170068497602   30.47021655088198
C         7.82386849678182   -0.11269937333467   30.08020085940035
C         8.71759377213641    0.85348881378888   29.65476976269833
H         8.94277544136797    0.84049130776866   28.58129128850753
C         6.42953468221365   -3.39425601916987   31.25278250017245
H         5.42752298711032   -3.73107870303796   31.50580008561347
H         7.07441499074229   -3.53384440984776   32.11953897799714
H         6.81938180729203   -4.02203535961574   30.45085289123399
C         9.92075895542471    1.28025973434152   30.46734926742014
H        10.73946774850589    0.57933401370340   30.28818310701854
H         9.70502163837333    1.28940440960965   31.53320957874702
H        10.26603552549637    2.27254029289917   30.18072833220005
C         5.35496255741828    2.97625198912229   32.99851577843786
C         5.65202384038175    4.17161401434630   33.64796048887558
H         6.67534424016138    4.50469929499133   33.74013052556059
C         4.64237003381388    4.94589895817465   34.19523194546725
H         4.89756246567220    5.85958326404196   34.71278627745173
C         3.32032566095521    4.55147331666020   34.08799601768347
H         2.53469668466076    5.15142878586788   34.52242308251058
C         3.01200388998286    3.37879986592333   33.41879901821493
H         1.98285759992148    3.06609539486286   33.32174673909895
C         4.01818092095168    2.59954155155815   32.87861976810679
H         3.76542971621658    1.69727967582299   32.34475513309045
C         6.53514158669661    0.36227552701043   33.27448906990088
C         7.67892281911744   -0.43582746997073   33.31218858593075
H         8.57357421726090   -0.10898673081430   32.80148008316790
C         7.69008417656198   -1.62261069860379   34.01775444577301
H         8.59058629336015   -2.21867993642643   34.04984607728689
C         6.55110926042858   -2.04219970371955   34.68653488076443
H         6.55436203443752   -2.97129003790734   35.23625010918626
C         5.41329038353527   -1.25631213036964   34.65544136710014
H         4.52617567314344   -1.56968734513667   35.18556427043814
C         5.40292041615592   -0.05891474364227   33.95883666373487
H         4.51228330879748    0.54867714575347   33.97646787225249
C         8.09343642601848    2.65332992543472   33.20299696983239
C         8.88585006098735    3.62493990457671   32.60217991138699
H         8.68185195706940    3.91156214979905   31.58379598878861
C         9.92087495853092    4.22630551708720   33.29567123759374
H        10.52986090120672    4.97244888788068   32.80638531345441
C        10.17119934348784    3.87278106131822   34.61029172781122
H        10.98118448077411    4.33559531086153   35.15318135355848
C         9.36861127069429    2.92820852810996   35.22892858505979
H         9.54576540912276    2.65992871932266   36.25955499919588
C         8.33433064254963    2.32574431845599   34.53614479924236
H         7.71118737288251    1.60155631921026   35.03923453072675
C         7.07182532595593   -0.25959329331273   26.90996104631844
C         6.73519358417973   -1.48571254177612   27.48160456408932
H         6.02768048069651   -1.51220605263262   28.29779537129460
C         7.30141080516075   -2.65657587388474   27.01417814132062
H         7.02376096513905   -3.60124535753379   27.45797217018211
C         8.22357846939923   -2.61769938548284   25.98111970359416
H         8.66966911167498   -3.53067756977728   25.61720133631740
C         8.57425489030196   -1.40209573931835   25.41967358150120
H         9.29643210321158   -1.36522749878648   24.61774966262421
C         8.00440099882098   -0.22673609169617   25.87847694847623
H         8.29129739632226    0.71167595483255   25.42701137939821
C         6.88953175561698    2.48156621534197   26.38914294123046
C         6.27921088619039    2.65150254233171   25.14872117262323
H         5.39137443270329    2.08889092423822   24.90000173709818
C         6.81491310580997    3.52648975564911   24.22118633262868
H         6.33645164512432    3.64407009546281   23.26034794863611
C         7.96848523049549    4.23614427119575   24.51094767460977
H         8.38648474359036    4.91406389487396   23.78242468154164
C         8.59442236336811    4.05537245838247   25.73198997655581
H         9.51210320755623    4.58430763031904   25.94777541864319
C         8.06102672268539    3.18032618508464   26.66142887987721
H         8.56266489121741    3.01446355072283   27.60274664080048
C         4.55187125570979    1.06711793327999   27.02620352080702
C         3.95413607853881   -0.14509209678701   26.70696351613584
H         4.52187547789736   -1.06194117890730   26.73732215447531
C         2.62289982317467   -0.18753487272582   26.32552793998430
H         2.17157798957480   -1.13665557458569   26.07761612093175
C         1.87371618911436    0.97339119989124   26.25742961105028
H         0.83634456790163    0.93383612242298   25.96179931330953
C         2.46510675520804    2.18909737240708   26.56292414015308
H         1.89022984222816    3.10189193493879   26.50304077383904
C         3.79017803604757    2.23283559037014   26.94727500661640
H         4.25665870961692    3.17863427842281   27.18404193191799
C         8.33711683347692    6.57048369710998   29.86806728317065
C         9.44675414307510    6.14573697142315   29.13882002085072
H         9.30327812460615    5.65284749663388   28.18634995715147
C        10.71817144261989    6.37302157982826   29.63266088900675
H        11.58050425028826    6.04731043775680   29.07060731548804
C        10.88457963223019    7.02186814379407   30.84672030397675
H        11.87877553858724    7.20340411750418   31.22602969037006
C         9.78021812947436    7.43955870113771   31.57339770061688
H         9.91331712000143    7.94374740502051   32.51845078192862
C         8.50369617353899    7.20987022690335   31.09168806885146
H         7.63854631865466    7.52998030769023   31.65547513157868
C         6.63717741184965    6.57870942775344   27.48462370723297
C         5.66688000230353    5.95525485288943   26.70722892407807
H         5.01390987009456    5.22377369305122   27.16144908148405
C         5.54596948771610    6.27482044544899   25.36848947747659
H         4.78905438393071    5.79499275709895   24.76750918657831
C         6.39525690930083    7.21306792723916   24.80357242881902
H         6.30107270645356    7.46418812403184   23.75832816727169
C         7.36360777717934    7.83413171776698   25.57676420201910
H         8.02089989733318    8.56718627660166   25.13416994892254
C         7.48655943785905    7.52537213198532   26.91938518974869
H         8.23225536240522    8.01832909090355   27.52800129764840
C         5.49449993846930    7.26302153121262   30.06142587113012
C         5.11954479163821    8.47157272358865   29.48239313110352
H         5.53021798667199    8.76484096422680   28.52627322058691
C         4.21559494755837    9.28842937902174   30.13691079701033
H         3.92145049338323   10.22667682942940   29.69203056309431
C         3.68621719266672    8.90226926757833   31.35873717312528
H         2.97783937136556    9.54177689830357   31.86252193744231
C         4.05982614833983    7.69709769703249   31.93277659127880
H         3.64292346227336    7.39255901197316   32.88027598315377
C         4.96541817872253    6.87389986199958   31.28921861004471
H         5.25597353156951    5.92741896299165   31.72633444688180

