160
CSD_code = OGEXOO | q = 0 | S = 0 | Stoichiometry = C78H75MoN3O3 | MND = 6
Mo        2.97354845274586    4.16171524133464    4.66572055111047
C         0.99032097075340    4.16146537042089    4.32312355883191
O         6.01663334337845    4.16181455706000    5.28484767824728
N        -0.15534140437435    4.16104169321640    4.06819066015750
O         3.07313352130011    7.26682423222905    4.53219975664594
N         3.75923655977544    4.16132167968992    1.59272008265804
C         3.37781827205153    4.16212835620539    2.70404513937077
N         2.46970809629903    4.16147198825075    7.80172311505214
C         2.66741474333691    4.16130606918865    6.64708938566324
C         4.89528969368871    4.16180069123129    5.03436542645567
C         2.99929942735175    6.12664937823684    4.61800413115491
C        -1.36082407940304    8.67963948800504    4.89552202059617
H        -1.78430139480750    9.28259314606384    5.68780366218461
C         0.26952609934387    8.36522473197975    3.18428375390363
H         1.13192474661894    8.70931165560606    2.63285839600952
C         2.54447044677949    6.95592163788932   -1.28626848927802
H         1.68442808749033    7.59685250555221   -1.46724617566038
H         2.19478129548384    5.93820984199046   -1.11637724862255
H         3.15771192581662    6.94778149803363   -2.18679016317550
C         0.11415730504531    6.35218279313562    7.51775131765107
H        -0.29091029632703    5.75327560068523    8.33086967984926
H         0.32522597454331    5.69285674026467    6.67237297436341
H        -0.63700390207217    7.06866653856768    7.19422706814714
C         6.20128023110357    6.30847541365663    2.11722363998819
H         5.80215534521528    5.62389532921081    2.86837177438772
H         6.92879852272151    6.95184275725384    2.60689265437792
H         6.70783886962353    5.71885608479359    1.35533315117043
C         0.33260826855888    6.33144870382187    1.75101100217315
H         0.68812896083977    6.99621352147309    0.96806531224471
H        -0.38265011631202    5.63104382221832    1.32445752033783
H         1.19351632478679    5.76702879638890    2.11933145162264
C         5.72020472860235    4.16091901179937   -2.03516506886661
H         6.25374395684041    4.16081804635265   -2.97397508671932
C         2.93250851058901    8.87132785132926    7.54483294467809
C         3.68156344805896    8.43055428849150    8.62532169422196
H         4.58894120475495    8.95443866813820    8.89308219245260
C         3.30508659322946    7.31691545417794    9.35889154855105
C         3.77087516961695    9.15366973045928    1.54951075285137
C         1.77246668942861    8.18577841891621    7.21718454943495
H         1.17822225195280    8.51017371784021    6.37576975045140
C        -1.92078353779751    7.44452251058519    4.61297704778529
C        -3.88833547055353    4.16131309646242    2.31744121362566
H        -4.85095866379074    4.16139456392307    1.82816861094466
C         3.05337089556943    8.67975268795666    0.46054145513712
H         2.26062833030881    9.28563245895561    0.04166794884465
C         1.02967192105631    4.16018533620357   11.65142911500046
H         0.62446507984789    4.15983384350807   12.65260179674068
C         4.77842977718720    8.35977063333563    2.07525367132693
H         5.34120401983493    8.71200477141504    2.92815116236732
C        -3.27218450288669    5.36020757676027    2.63119004009947
H        -3.74895514654555    6.29786034518903    2.38537984903622
C         5.38147867088902    5.35997113665966   -1.43243261517603
H         5.65456610882108    6.29778079583839   -1.89424259332936
C        -0.27452265846586    7.12883875344741    2.86697164394935
C         1.36701950369621    7.06801536094011    7.93019844905466
C         1.29189347257213    5.36347096058530   11.01648635862658
H         1.09295558916958    6.29893981787985   11.51881461793856
C         2.14121191558403    6.63017162079221    9.00520443746421
C         3.33686841561940    7.44863315827799   -0.10988691221517
C        -1.38253968089400    6.67086820956798    3.58055064093695
C         5.09028757057071    7.12486809893428    1.52698545232939
C         1.79719874683463    5.38348541023837    9.72579375763516
C         2.02637844746925    4.16107999127085    9.08202282141838
C         4.36700806995620    6.67090644677385    0.42307276959179
C         4.71019735639315    5.38082861500031   -0.21864159343687
C        -2.02664078826036    5.38142348971531    3.24225932440343
C        -1.39887136701163    4.16111454417240    3.52807257155682
C         4.38354637221264    4.16117581895479    0.38985084748215
C        -0.27041809433943    9.15965200434569    4.18334484795617
C         4.15781284907443    6.83605518603419   10.49663246415848
H         5.08108419961430    7.40769021769354   10.55021583112063
H         4.40719116882072    5.78291930011712   10.37025413937043
H         3.63344531216234    6.93953306190268   11.44588273766712
C        -3.08624467648771    6.94429677880049    5.41688459613747
H        -4.00372707884299    6.97584506432328    4.83016431575241
H        -3.23083098429824    7.55760730030582    6.30345989258802
H        -2.92696589518443    5.91243580692208    5.72698363317539
C         3.49426811806608   10.50932381676745    2.12654049732283
H         4.20784208962753   11.23312059887004    1.73029066295613
H         3.60345530737479   10.49504202875639    3.20901784580740
H         2.49284247714606   10.84952804235683    1.87207540465313
C         3.37118951072611   10.04615594236964    6.72493065513010
H         2.60564701361550   10.82096217608322    6.72267387077448
H         3.53405376344283    9.72796422592749    5.69606025539711
H         4.29558799719334   10.46999267605234    7.11004756023133
C         0.29137560490162   10.52034238307371    4.46526635078618
H         1.37315910730246   10.51647119889407    4.36326900664540
H         0.02790490021006   10.85299823785423    5.46701788687527
H        -0.11116252708713   11.24221404418718    3.75308224810262
O         3.07557686269601    1.05667646800063    4.53358498667069
C         3.00006187684181    2.19681420356874    4.61831617552515
C        -1.36211141136797   -0.35721679144618    4.89635241920792
H        -1.78592091595685   -0.96002113077639    5.68857027475046
C         0.26889497032791   -0.04319497669822    3.18568292788520
H         1.13147269825342   -0.38740205407106    2.63461451958851
C         2.54370727124705    1.36677862810680   -1.28547367983202
H         1.68443015455391    0.72505439805091   -1.46726689450601
H         2.19279011422205    2.38391458669840   -1.11459436894989
H         3.15713081818570    1.37658791096479   -2.18584444159935
C         0.11478067628574    1.96956820777634    7.51740737345085
H        -0.29105001450017    2.56688893698948    8.33131973694047
H         0.32580278503421    2.63044524941913    6.67322598421068
H        -0.63573683951910    1.25311453564231    7.19234375573518
C         6.20110768628534    2.01379997703981    2.11743229670918
H         5.80204316616285    2.69828902795644    2.86869755964858
H         6.92869873104736    1.37041489312303    2.60696447944027
H         6.70755979320667    2.60351855606106    1.35555559427158
C         0.33285540711952    1.99032325290574    1.75219313661304
H         0.68738747801637    1.32543823269974    0.96889563820413
H        -0.38162692085862    2.69176917258369    1.32607098028495
H         1.19455005636423    2.55352388324230    2.12054883333110
C         2.93396990072200   -0.54871621273068    7.54318195170186
C         3.68338257397594   -0.10761504526387    8.62328871377064
H         4.59114429517251   -0.63108950832815    8.89054692103264
C         3.30675828439283    1.00579997070606    9.35712703313499
C         3.77025656912255   -0.83109741444027    1.55015895693112
C         1.77353784957210    0.13642028827808    7.21603922515867
H         1.17908290890888   -0.18812847803871    6.37483715770539
C        -1.92180570450380    0.87793643938703    4.61347629762046
C         3.05269899750724   -0.35715976194807    0.46123841895459
H         2.25978789257252   -0.96293231669753    0.04252953703218
C         4.77803526656271   -0.03733763714656    2.07569186018476
H         5.34084994261622   -0.38959535650736    2.92855092339514
C        -3.27247916699647    2.96232458019346    2.63140793686326
H        -3.74950132488925    2.02475947254205    2.38575268136378
C         5.38134102105384    2.96199484428845   -1.43225291999976
H         5.65431424945994    2.02408764176069   -1.89393802613292
C        -0.27491386127628    1.19321403828677    2.86800329096180
C         1.36796638921112    1.25398541242040    7.92929492245725
C         1.29261506526745    2.95735475859306   11.01592618996038
H         1.09425687426909    2.02151866977671   11.51780212751312
C         2.14239935076382    1.69201776168236    9.00405458784893
C         3.33634251531226    0.87385833047568   -0.10933704678460
C        -1.38314306786266    1.65139672738113    3.58110237383631
C         5.09003428241134    1.19746101173378    1.52728113723037
C         1.79789611669051    2.93825471692800    9.72520609321951
C         4.36669824765372    1.65144071577611    0.42341375009586
C         4.71004597889762    2.94139334628268   -0.21846216578012
C        -2.02694628315082    2.94090521798623    3.24249872964537
C        -0.27149810293507   -0.83745201796949    4.18462145422086
C         4.15983233407149    1.48697381197933   10.49446588237823
H         5.08308288826984    0.91529571750248   10.54794758988523
H         4.40925320436982    2.54004649392748   10.36763331256529
H         3.63574013556911    1.38387019591866   11.44390557742498
C        -3.08726929385608    1.37853967701987    5.41715048342396
H        -4.00460612640163    1.34771635994385    4.83017615385203
H        -3.23243769055047    0.76505335711410    6.30350765825201
H        -2.92746925700479    2.41021502592503    5.72761665816413
C         3.49336090366676   -2.18654046299415    2.12754849892030
H         4.20742739512224   -2.91043186253484    1.73237357532479
H         3.60152782812053   -2.17166889759469    3.21012548288836
H         2.49221864086868   -2.52702313118222    1.87233068865147
C         3.37274995031851   -1.72349435528282    6.72325463234320
H         2.60757725591902   -2.49866274451393    6.72151570954523
H         3.53499871503587   -1.40544831926598    5.69424717592190
H         4.29752246969840   -2.14683297158603    7.10802069637998
C         0.29002965347177   -2.19816117272340    4.46700164679909
H         1.37168937431562   -2.19487173063933    4.36370169396803
H         0.02761235797412   -2.52985208361170    5.46935263433176
H        -0.11370769798319   -2.92046346676305    3.75593219184593

