167
CSD_code = OGEXAA | q = 1 | S = 0 | Stoichiometry = C79H83AgN3O(1+) | MND = 4
C         4.93471429846458   19.50849628947205   11.14909232665967
C         7.96676549385887   17.97637303351572    9.52304109567351
C         8.17381188389066   19.49117777824451   12.61560289281035
C         3.06331521248661   20.26818285119631    9.64213210071528
C         1.72393949343608   20.26911776316617   10.04519766883959
C         0.76248389180673   20.64530438128567    9.11832367146831
H        -0.27530629910841   20.64796992829156    9.41502299411641
C         1.12550017727439   21.01267538017409    7.83341242315908
H         0.36446421868290   21.30056982474392    7.12451068467499
C         2.45814594926271   21.02228686528144    7.45273693332221
H         2.74068726387499   21.32283187074997    6.45533209201430
C         3.44739265678511   20.65341362621827    8.34950183883224
C         1.36054787721245   19.90917227306513   11.43520065745582
C         1.06914103707076   18.59113415540809   11.77815389706084
C         0.73377039064800   18.29611057284352   13.09358267031175
H         0.50280580362220   17.27383542755488   13.35774802112805
C         0.68085306735064   19.28208141960182   14.06573748991846
C         0.96601256594367   20.59272740611897   13.69955813401649
H         0.92055973377118   21.37050040768309   14.44843904357907
C         1.30397065583729   20.92183794105688   12.39789114641943
C         1.06911434213954   17.50317241547793   10.74492660970466
H         1.35680351698434   16.55154671428647   11.18689169485275
H         1.74161418102631   17.72975916715453    9.92026566433498
H         0.06598486491513   17.38902115927772   10.33279954644156
C         0.33852695882950   18.95879459727436   15.48662320797560
H         1.20412866574540   19.12809804851654   16.12763551554286
H         0.02598074659797   17.92268054671575   15.58843741852123
H        -0.46576091974665   19.60146742431705   15.83988301021706
C         1.58800451054704   22.34407115917507   12.01310572721121
H         2.56376833369785   22.43647529914152   11.53630180953663
H         1.56541905962476   22.99059758968562   12.88655881418245
H         0.84139333453045   22.69947441621625   11.30340182805285
C         4.88819465469121   20.66288716943500    8.01133040060975
C         5.67216287527491   21.75122464693951    8.39672974167734
C         7.02965417043157   21.72901502449293    8.12011124580720
H         7.63827546751928   22.57446744608741    8.40538186577561
C         7.62032590658687   20.65068722281197    7.47790281470323
C         6.82175836518501   19.58062303026049    7.09863292537816
H         7.26438115965480   18.73936737508476    6.58540722118597
C         5.45927696635854   19.57221162883066    7.35607667259191
C         5.05324674958409   22.92498406276720    9.09747637731683
H         4.08650339425628   23.17441267593638    8.66382863872060
H         5.69946888145014   23.79593287433530    9.02832464449454
H         4.90138360503103   22.69986996937100   10.15434578900463
C         9.08520116770527   20.65916991923813    7.16871649357744
H         9.63176823572273   21.25877530869790    7.89248054248002
H         9.25329351894014   21.08551325037544    6.17933699940077
H         9.48265549225607   19.64820182352830    7.17149233517915
C         4.60745324731439   18.41866316461965    6.91885644562939
H         3.89169085055678   18.14082923201031    7.69050086788385
H         5.22714539196594   17.55822441138021    6.68314769638425
H         4.04258710207790   18.68744695343005    6.02616425755907
C        10.02300842478602   16.67304435877277    8.86393073734217
C        10.05029406493254   16.04772482716650    7.60891324842465
C        11.18535969657690   15.33472122801668    7.24867208115760
H        11.21075660475191   14.84993421901768    6.28475817157983
C        12.26143108275963   15.23157034165147    8.11354856548549
H        13.13575205157223   14.67185797775066    7.81905010497411
C        12.21641475649122   15.83629192229006    9.35675013174497
H        13.05379969498609   15.75649934859883   10.03247051646627
C        11.10364121107802   16.56858102818766    9.75349193340043
C         8.89331092047166   16.11753984565181    6.68902176467217
C         7.74018126939832   15.38177647225219    6.97559152865804
C         6.67551521163399   15.42431574069851    6.08869592821431
H         5.78721049520649   14.84695236610612    6.30488720458166
C         6.73210505493445   16.17561373775287    4.92249665468022
C         7.88917312877509   16.89203143142915    4.65286501337004
H         7.95066671704774   17.47687270461015    3.74648349354473
C         8.97565032768153   16.86933853682161    5.51526101967838
C         7.66744417664215   14.51782381022671    8.20114165057430
H         6.80020591017496   13.86371806639075    8.15072591243214
H         7.58746920120726   15.12252759029747    9.10461726190110
H         8.56194089936248   13.90185667504333    8.28932717069523
C         5.58613536840991   16.20000034504768    3.95931679141205
H         5.82167163555653   15.58880613853777    3.08825779935831
H         5.39771321709902   17.21376586828645    3.61154417371716
H         4.68066794858650   15.80748976704414    4.41542239685448
C        10.21579237371737   17.63433343487509    5.15783932835112
H        10.84769494471098   17.02989344098060    4.50669344826321
H        10.79936881062116   17.89660820051044    6.03759349001554
H         9.95935384906909   18.54310460856728    4.61809308746047
C        11.06612270794156   17.17940436562178   11.08870965542809
C        10.94644196158391   18.55995312636020   11.36000467041636
C        10.98708930046127   18.77669300822363   12.71315419031428
C        11.10396608648207   18.44286623446599   14.02129107094413
C        11.16095904038635   17.25977142289485   13.36389666511546
C        11.19460005293651   16.42687928760845   12.27876508391162
C        10.84513327136215   19.64421830177934   10.33648596102407
H        11.43875982405703   20.50186138659813   10.64326474018860
H         9.80980714181074   19.97680886902811   10.22725433898486
H        11.20232837322795   19.29280219382466    9.37081480060665
C        11.16455309059107   19.01214662641670   15.37068272811844
H        12.11190442422311   19.53283427996638   15.50641054567226
H        11.09102220248211   18.22209053609141   16.11411504941544
H        10.35724811091844   19.72852887514423   15.51159816023025
C        11.32819530246082   14.93855279333187   12.35829600548367
H        10.83274838529854   14.56116952656540   13.25002911632078
H        12.37771821485045   14.64858974696937   12.41406215061236
H        10.89184960434624   14.46484513862884   11.48107461621241
C         8.09972874548425   21.28424615011964   14.38381800059991
C         8.93645981669692   22.40747202866204   14.32138652852857
C         8.88883732167441   23.30828282307107   15.37965048104619
H         9.51572344905317   24.18579916523100   15.34408733792534
C         8.04123001156573   23.10239082011450   16.45432996922049
H         8.02242339430553   23.81420214519772   17.26523477645215
C         7.20075500383438   22.00035535349175   16.48751048242056
H         6.52161586770955   21.85346449270849   17.31387439447423
C         7.21036998622972   21.08074968947746   15.45068513242094
C         9.81685413603407   22.64302082514952   13.15729689952099
C         9.25816281830932   22.86023173853350   11.89186649861935
C        10.09472645525425   23.10289942578515   10.81484029048674
H         9.65822301243946   23.28172338370229    9.84251309900361
C        11.47511948382340   23.13268813437134   10.95256354377732
C        12.01003764273723   22.92649475697824   12.21369411755453
H        13.08188024728181   22.95553020359515   12.34813076647707
C        11.20424841346557   22.69226240613021   13.31907135426353
C         7.77476620637408   22.88354156726983   11.66346988344735
H         7.43341524210948   21.92053707184528   11.27033451479133
H         7.52806015392332   23.64619541308579   10.92862171691245
H         7.22987116622411   23.10271017736444   12.57857696741663
C        12.35169975522838   23.40911317812333    9.77026217093071
H        13.38686491013803   23.15527832059803    9.98342589102532
H        12.30679957700964   24.46749159541471    9.51362366205249
H        12.02065969810475   22.84227284443288    8.90162560619284
C        11.86896114794518   22.50964669396479   14.65166216413989
H        12.74415993028390   21.87157431695611   14.54603585461873
H        11.19993633155627   22.07726024766422   15.38947663309106
H        12.21154390427832   23.47391753176992   15.02773392282612
C         6.27560602011526   19.93098045115959   15.39718011291707
C         6.53428026523186   18.74682463572598   16.08332808023158
C         5.64755136801099   17.68413286757740   15.95369573673961
H         5.85114879872104   16.76824040632236   16.49070425600111
C         4.52224762723607   17.77206321913965   15.15092864920737
C         4.27128029391571   18.96715898890184   14.48867459808324
H         3.38517187627598   19.05862368550012   13.87764448618507
C         5.12427173532271   20.05110372024394   14.61077212654506
C         7.76204228133716   18.57636400026699   16.92793488514262
H         7.52215823652829   18.02855581898122   17.83642398235046
H         8.19531991565206   19.53465695283962   17.20293124206547
H         8.50919428857734   18.00191084651447   16.37978518448600
C         3.57176020593375   16.62258257385467   15.01465351198538
H         2.69790115565712   16.78554864896858   15.64527152566109
H         4.03804299883972   15.68811976775344   15.31968024930060
H         3.22557121589793   16.53514371033056   13.98626950578649
C         4.80282924502663   21.34124748986888   13.91638233613266
H         5.00019239796164   22.19298515880415   14.56546524114285
H         3.75673133684645   21.35477601739186   13.62454373034940
H         5.40989007477635   21.45317541375577   13.01659159388217
C         5.19343866107984   15.34994582972651   11.09691716448515
H         4.40579363962646   15.08282582324402   11.81798325566837
H         5.63608738647741   14.41550774618196   10.71963414288218
C         4.60850372865908   16.15668122950479    9.95469943134063
H         4.12917083322333   17.05027430416681   10.34585527374626
H         3.86800075497303   15.56065277871174    9.42783779604420
H         5.38939336695159   16.44793630576147    9.25537977025222
C         6.77041800780093   15.38718500600153   12.83524491728061
H         7.24582854053234   14.47286018154999   12.44709184867181
H         5.97788736170228   15.08941927210006   13.53729076192159
C         7.79056730888265   16.25844318624478   13.53595129452922
H         8.57560819195639   16.55284606072741   12.84270841684605
H         8.24136313874592   15.70968056232874   14.35792209285046
H         7.30467094105150   17.14756554981562   13.93373337353765
N         4.03798345607245   19.86535737959109   10.49628927675612
N         8.92057996297241   17.36865377847142    9.24035496935158
N         8.12943542689873   20.35080808213574   13.40260595304635
Ag        6.81689880779358   18.48576065787579   11.26207522739831
O         6.19268900348613   16.10107471769833   11.75989857646290

