42
CSD_code = OGIDEO | q = 0 | S = 0 | Stoichiometry = C21H18MoOS | MND = 9
Mo        3.18939869483281    0.78523090784785    2.99350653388852
C         1.15502846611040    0.24522382237135    0.34668552425549
C         1.66849233885435    0.41747499305437    1.68111561584259
C         1.13561814196884    0.46005056800856    2.89449486495556
C        -0.12547099107128    0.18508769656962    3.53735557374132
C         2.33973831999950    0.93380993611574    4.71471850148332
O         1.76739904219595    1.11922787299701    5.69244533111496
S         3.73865851841947   -1.45382813774276    3.68067264533771
C         4.24324700500817   -2.26775941001379    2.13076099934621
H         4.30146524008568   -3.33245107284021    2.33818719352874
H         5.22115563810077   -1.90607225625935    1.82288989309722
H         3.49667773064572   -2.08219242472774    1.36314686047134
C         4.95997451849404    1.02482438308502    1.47336075675339
H         5.21545803667017    0.43015021240881    0.60878171436714
C         4.16431583108945    2.18995095634837    1.46868007925438
H         3.70654653044703    2.64242050165547    0.59535648618240
C         4.26002728806719    2.79778048906621    2.75274633605253
H         3.92426688548975    3.79689009590684    3.00761070727391
C         5.56845983624668    0.92333457096035    2.74340944105720
H         6.32281652674063    0.19906686513421    3.03180584612412
C         5.13074793837369    1.99465013116296    3.53639649795950
H         5.51872878002605    2.25532839145820    4.51302496229609
C        -0.22293331830551    0.31400641617402    0.11023043921033
H        -0.88895417251418    0.49752291578267    0.94131163277753
C        -0.72154453482121    0.15195417875800   -1.16666587092352
H        -1.78646598045967    0.20895523087291   -1.33720468393961
C         0.13762723805468   -0.08438366914949   -2.22891509243097
H        -0.25615870411146   -0.21119064404464   -3.22640206083332
C         1.50303808762712   -0.15925715849047   -2.00715825123182
H         2.17447129123591   -0.34705237179338   -2.83250598568769
C         2.00887635911666    0.00548411699938   -0.73242989333457
H         3.07381276159857   -0.05989632609048   -0.56178773515941
C        -0.92596498836031    1.20728795859050    4.04554478365420
H        -0.59564878436441    2.23300098186388    3.95325216747517
C        -2.13081499592811    0.90758152362153    4.65336935775607
H        -2.74584762682764    1.70543332439533    5.04284473348560
C        -2.54563303099539   -0.40814318090587    4.77140044340639
H        -3.48476584807007   -0.63841999994702    5.25194110591710
C        -1.74798578170078   -1.42976934484358    4.28050112242809
H        -2.06485907488958   -2.45743551964636    4.37881129417590
C        -0.54491914479950   -1.14121192915924    3.66718830592462
H         0.09331993173824   -1.93066559576087    3.29262182301129

