49
CSD_code = OGIDIS | q = 0 | S = 0 | Stoichiometry = C26H20MoOS | MND = 9
Mo        0.99783995194021    3.76904256822983    2.90798055108133
C         4.31828699058431    4.39475020663948    2.84235257444226
C         2.89517207612419    4.51038583612732    2.65205506241910
C         2.05727192332151    5.40686322014338    2.16416243840531
C         2.03667453484991    6.75259689099275    1.64726835097560
C        -0.15326107912934    4.98867847595526    1.96655074035122
O        -0.77836961501021    5.68940155376586    1.30624868593958
S         0.14184329182979    4.84698805755651    4.89978190458026
C         1.23964152094765    4.16222722823208    6.10286932917675
C         1.88450132681395    1.67576631536281    2.60091479404787
H         2.87136784136761    1.42234928030373    2.23113149137061
C         0.71450740418352    1.78303263273732    1.79683607775838
H         0.65703741752449    1.58905323888906    0.73166237936718
C        -0.39523780820298    1.88646642651943    2.67783605055934
H        -1.43674015670597    1.84508449842089    2.38449210344020
C         0.08749840511552    1.83737822943362    3.99336166872320
H        -0.52430006364375    1.78482661393490    4.88683343064491
C         1.49521087933837    1.72832415014616    3.95433027605146
H         2.12542046643213    1.54040552321061    4.81141215324087
C         0.75182937063246    3.34956525519262    7.12017799055875
H        -0.30955402131450    3.15754258681488    7.18209769980903
C         1.62637725023708    2.79860978214175    8.03888161583629
H         1.24716796940959    2.15792570277624    8.82166867483370
C         2.98349410546726    3.06753664175947    7.95877666200076
H         3.66366447936107    2.63294390646157    8.67628793870790
C         3.46430278249649    3.90737041766872    6.96657682002005
H         4.51875157123822    4.13611847495293    6.91081543407921
C         2.59639363579939    4.45877116311690    6.04236631621188
H         2.95752946236973    5.13411064911464    5.27668557125532
C         1.48166909974078    7.77210337893570    2.42412687859817
H         1.06833479931482    7.52472533443444    3.39484756660427
C         1.46803578175799    9.07098870928962    1.95485451620045
H         1.04304157290188    9.85532208671757    2.56360230399243
C         1.98596830755528    9.36770824982642    0.70398586727924
H         1.96573668067170   10.38285767840770    0.33665904991518
C         2.52012954992376    8.35796423991707   -0.07946069538236
H         2.91319408839857    8.58435306484715   -1.05998176862877
C         2.54973858843648    7.05679307883939    0.38558567949781
H         2.95091896594400    6.26237768802320   -0.22959024229540
C         4.86153740663944    3.40286797869943    3.66343445058019
H         4.20394525654393    2.71566751350587    4.17478961471780
C         6.22797614005968    3.30807638217841    3.84170163447903
H         6.63338800676182    2.53758918419031    4.48166501495584
C         7.07817027309426    4.19666249798747    3.20371715856600
H         8.14634110310890    4.11888537423836    3.34201400683634
C         6.55228266660727    5.18956106946002    2.39145416001125
H         7.21192441601668    5.88794933359209    1.89749938027828
C         5.18753299364999    5.29291457599747    2.21131912449568
H         4.77631238948719    6.07161705431708    1.58606151341868

