49
CSD_code = OGIFAM | q = 0 | S = 0 | Stoichiometry = C18H25O3PSW | MND = 9
W        -2.13606392299280   -7.62822011932003   -3.07796039141742
C         0.16673874538200   -8.75678645866129   -0.80326549722309
H         0.02878221691906   -9.52902278178858   -0.04305575305217
H         0.32393285281981   -7.79872164425611   -0.30803423198001
H         1.06972791440463   -8.99730349149399   -1.36924294162232
C        -0.99750377587030   -8.72005713792208   -1.72646929159906
C        -1.89321303594029   -9.54103421227578   -2.22543011285161
C        -2.27458046951841  -10.96926991857137   -2.02393412055263
H        -3.03747388929709  -11.03104341164853   -1.24563329994081
H        -1.40864972420926  -11.55162664026892   -1.70133172158341
H        -2.68024882964242  -11.40904395455103   -2.93315809705174
S        -4.28638717897270   -7.15685036190132   -1.98837918034413
C        -3.76488217033729   -6.17884696983824   -0.61849196086979
C        -1.03244152225907   -5.62030463696071   -2.56731359797305
H        -0.72184780621409   -5.27054495313282   -1.59428258027638
C        -2.18287552638208   -5.19802749037449   -3.26145193737032
H        -2.93105574790671   -4.51512591708291   -2.88046691710061
C        -2.17468470295601   -5.77338038922119   -4.54038471274708
H        -2.86764277163695   -5.54227163314516   -5.33742103252916
C        -0.97000630250306   -6.52904956323898   -4.68720685698307
H        -0.56708570288345   -6.88969469362556   -5.62571430432895
C        -0.26195636250763   -6.42094736623069   -3.45374607786671
H         0.76032398502830   -6.74022092056219   -3.28498205180551
C        -4.35690615697892   -4.94334267023605   -0.37466620569853
H        -5.14716990690422   -4.60052100485604   -1.02635325361927
C        -3.92800169930698   -4.16950422014231    0.68743406313104
H        -4.38214329063576   -3.20517684736354    0.86519083965711
C        -2.91814560424975   -4.62365331822085    1.52030916683451
H        -2.58138465730544   -4.01398427545874    2.34607939646304
C        -2.34930418091627   -5.86783610651442    1.29659034198646
H        -1.57477249312709   -6.23429163759334    1.95593432862235
C        -2.77146355699333   -6.64579289225501    0.23563893969285
H        -2.35071370409582   -7.62661021779701    0.05651028436515
P        -3.48897689245703   -8.79146552432117   -4.63915884469362
O        -2.82306412243801  -10.15543604707504   -5.25084391597883
C        -5.39110296392014  -10.10573908877414   -3.34277194582373
H        -6.47571577979885  -10.00939443101105   -3.29367071211925
H        -4.94603415722430   -9.69246700785429   -2.43510289992328
H        -5.11926783752766  -11.15746978113553   -3.44628061310044
O        -4.97149805700997   -9.37546187932092   -4.48404802624716
C        -1.43172191769272  -10.24537688233539   -5.45510803858709
H        -1.15481782933939  -11.29663847986928   -5.37067109238836
H        -0.89647231699125   -9.65812825881489   -4.69232110920266
H        -1.16470832793645   -9.87721275837967   -6.44869341741885
O        -3.72205201532961   -7.87716264365583   -5.93716659350779
C        -4.49981401526644   -8.35571666920457   -7.03116824137530
H        -4.19690706486728   -7.78088909477269   -7.90641035063422
H        -5.56017454386414   -8.20030060970184   -6.83410771496443
H        -4.31877318028784   -9.41793298726674   -7.20078771637241

