76
CSD_code = OGIGOC | q = 0 | S = 0 | Stoichiometry = C28H41BCl2N2SiTi | MND = 8
Ti        2.92913216878133   13.48605206458465    3.85968473634319
Cl        5.05214638709328   13.82050002656714    3.31208168592323
Cl        2.74139785127411   15.64183426278512    4.22049042316844
Si        4.89367546234704   12.44587304388902    6.08552618660677
B         0.96707839317864   13.53483974393565    7.29869879932101
N         3.23606913747639   12.56143357419104    5.46767115044741
C         1.14489856659199   12.22764019495789    2.97269595263658
N         1.39128182216534   12.05824051766287    6.87953469476991
C         1.08880034369528   13.56023619903475    2.45999326532351
C         2.24993223457485   13.77590323194884    1.66757273120271
C         3.00876429131521   12.57824409196743    1.66349700547488
C         2.34277614373274   11.62811495107238    2.48519656834048
C         0.00751366932219   11.47371362151061    3.60259668527279
H        -0.64261683859719   12.12841620895018    4.17776959587679
H         0.36354170335142   10.68525394264982    4.26438067787339
H        -0.59422992240673   11.00703017861874    2.81780646594074
C        -0.07272106221186   14.50952410768881    2.52410495873027
H         0.23810541656035   15.48911774556912    2.89173718194055
H        -0.85935252225860   14.12988337672304    3.17135497470176
H        -0.48958531078260   14.64158610055628    1.52307764570302
C         2.56184904520848   15.01415815300538    0.87963693280825
H         2.26652473673983   14.88388575281697   -0.16438102249456
H         3.63121974051929   15.22996217167475    0.90792724942591
H         2.02848055377780   15.87319882658565    1.28381031851179
C         4.18357184515183   12.27427185389290    0.78483523574718
H         4.90860711008600   11.64061114373202    1.29416012607148
H         4.68735303582763   13.18648989118611    0.47413364008077
H         3.84044874439773   11.74821363236549   -0.11001259664210
C         2.68805562525548   10.16692567092981    2.51048243636696
H         2.49380248055973    9.73573836482859    1.52495597963065
H         2.08594686774313    9.62704613043770    3.23706426909271
H         3.74336229306315   10.00618519503911    2.73449883929232
C         2.37734095662066   11.66645140916799    6.05046372424388
C         2.58687905066124   10.29000053710537    5.84934523577365
H         3.41662564294014    9.99463952932914    5.22793482802749
C         1.77179268485777    9.35185102733547    6.44760428265830
H         1.93754684415812    8.29785415183762    6.27763577643917
C         0.75649667515411    9.78064396821153    7.28398175230618
H         0.10940621214535    9.07995524909380    7.78417326818781
C         0.60780328804532   11.14344076135110    7.49834810229327
C        -0.32291375746365   11.77594063643064    8.40094008395678
C        -1.27820751155802   11.15765088863558    9.20273740395229
H        -1.40755027753763   10.08474260940287    9.19053040635196
C        -2.06575582322411   11.94439540750117   10.01772974935320
H        -2.81376255242517   11.48930217745858   10.65095825558276
C        -1.89961051157968   13.32490200207529   10.02414538908626
H        -2.52438332363161   13.92877442532806   10.66776299515011
C        -0.95106801078766   13.93061575320142    9.21874839907311
H        -0.84642314102467   15.00463206100666    9.24022120046675
C        -0.13473040546732   13.16799131019544    8.39357312829362
C         0.22041470392608   14.14635632090461    5.96764637016422
H         0.90831306463663   14.01626745630266    5.11157575795468
H        -0.68701873704224   13.56840936000145    5.76133227738743
C        -0.17046733361073   15.61573268148719    6.07392832627909
H        -0.80605666924257   15.77213603646295    6.94197375476599
H        -0.71982676724439   15.94334846492627    5.19102877004555
H         0.71467857431693   16.23750672755348    6.17008225971158
C         2.27808188036314   14.38551868580190    7.77547188324432
H         3.03261959110285   13.70345649473404    8.17199667032534
H         2.72788376147331   14.87730877167935    6.90806173870836
C         2.02258090812883   15.44268064558141    8.84903485206874
H         1.29413345979830   16.17348783193831    8.51041918804115
H         2.94362789313140   15.97274486821965    9.09178985319826
H         1.64727434327408   14.97990926027488    9.75924909147010
C         5.57654504411681   14.20435397122067    6.39893482057701
H         6.59558216671672   14.28161808976144    6.03439830752501
H         5.58701508580870   14.43723381845929    7.45901416622732
H         4.98858001326332   14.96862204532408    5.89373803871477
C         4.90089083800804   11.50842495311089    7.75823887171786
H         4.19654231700458   11.92365440734627    8.47062785989610
H         5.88738329131066   11.56142257424244    8.20590783267173
H         4.65469452421680   10.45866933599501    7.63582105649609
C         5.97074468930371   11.33337206407719    4.93463797795341
H         6.19119744520669   10.37842054195112    5.40381783533534
H         6.91816508712071   11.81580759105003    4.72013602723289
H         5.48920477150082   11.14362912551655    3.97731963758849

