102
CSD_code = OGIHER | q = 1 | S = 0 | Stoichiometry = C51H47OP2Ru(1+) | MND = 8
Ru        1.64661349699846    1.12121359875826    5.41539253778340
P         0.88993497974880    0.66840769727849    3.24578928890590
P         1.82974794390540   -0.97110011245705    6.45979032433517
O        -0.66337608108838    0.10478374644382    6.63659320558657
C        -0.15097465567625    1.19944604858308    6.13491538740930
C        -0.94641113710571    2.46950809185280    6.24397081273357
C        -2.29574955116386    2.39004842532111    5.50190763514201
C        -3.40638213104117    1.76106068742907    6.33542972075038
C        -3.14468993830460    0.28891132866435    6.63400682685992
C        -1.86328196576905    0.05739997601799    7.42624079920617
C         2.28449336170964    3.01649057625153    6.40235428693128
C         3.20682681218940    1.98418400854818    6.71607276839014
C         4.00396072357479    1.74388968908660    5.52766910470753
C         3.44441419331870    2.53209517033706    4.46941217590239
C         2.30491884735477    3.24488678069724    5.01122964012075
C         5.20528253419702    1.05318234443288    5.32105186442589
C         5.80753579889241    1.12595979687320    4.08438374841437
C         5.25974044907972    1.89586763610419    3.05262069512792
C         4.09606117286119    2.60974545784227    3.23307075073886
C         1.95379980359571   -0.48853306686625    2.31613102931739
C         3.21230973232452   -0.76807383368807    2.83890274697959
C         4.08546470344239   -1.59666625777058    2.15881613527795
C         3.70062001338124   -2.16023072944342    0.95330386648261
C         2.44156274352530   -1.89753591313039    0.43493560323136
C         1.56707734090038   -1.06383977032703    1.10848774464770
C        -0.78431532432841    0.07095361842828    2.81759940797012
C        -1.41754326780480    0.44065410674828    1.63219397802467
C        -2.65096385042017   -0.09614935413502    1.30861617801260
C        -3.25900721328792   -1.01288408713377    2.15087807017205
C        -2.63597672975971   -1.38040157289932    3.33194589855683
C        -1.41041037632032   -0.83312185933498    3.66900417622534
C         0.95433484199759    2.15238272559101    2.17987104303518
C         1.77885465863316    2.26434463555568    1.06665208817270
C         1.75457953203464    3.42068926205953    0.30324936818556
C         0.91624038290090    4.46821270904987    0.64391093846034
C         0.09118621456037    4.36061893217716    1.75362635419759
C         0.11142679561098    3.21001727668344    2.51744783050137
C         1.60623064377946   -0.90016301158507    8.27531946658497
C         1.21558204122468    0.26294792775714    8.92611894702998
C         1.08861154337015    0.29013293678038   10.30478009266609
C         1.35682378774206   -0.84582917925631   11.04878387793236
C         1.76459569779861   -2.00702146755914   10.41024553785650
C         1.89383088455554   -2.03531311604307    9.03472278358986
C         3.50362807006838   -1.72693153940655    6.44924669750226
C         4.41947933040911   -1.31219535110874    7.41604690922713
C         5.69485722893434   -1.84382822330814    7.45524674612891
C         6.08385874652900   -2.78753568649404    6.51861456952433
C         5.18370952055990   -3.20055970324923    5.55191154315742
C         3.90229813880151   -2.67811268570622    5.51621083506934
C         0.78613285763717   -2.39876819974214    5.98744664797869
C         0.81275528030861   -2.80287566743419    4.65360566982487
C         0.06365904023995   -3.88268531142602    4.22486229850176
C        -0.74726958707800   -4.56015672109926    5.12026790496756
C        -0.81441687858024   -4.13841437126988    6.43731770171571
C        -0.05465444233321   -3.06570085058737    6.87214859707519
H        -0.36978421044326    3.29661670275448    5.82813494659799
H        -1.13883612701652    2.69335248785029    7.30029593615882
H        -2.16661994143112    1.82174826099946    4.57687829889966
H        -2.59594791796402    3.40464181333213    5.23466393744386
H        -4.34766252238681    1.84682913076015    5.79091355564300
H        -3.51736973538264    2.31201708100164    7.27262200904731
H        -3.08716551957757   -0.27171688413029    5.70052719664873
H        -3.97336460252199   -0.11133486771319    7.21949161335606
H        -1.78311180516147    0.77247359104552    8.25245747349932
H        -1.85717887101002   -0.95416358574351    7.83802173511231
H         1.70342848277259    3.57269068957411    7.12806368032390
H         3.53341564305624    1.73553505276642    7.71850744411127
H         1.81956754930833    4.06731941537363    4.50336734573147
H         5.66618669476843    0.50191419651419    6.12650290605079
H         6.73957452024145    0.60815432117685    3.91722726627520
H         5.78123314856395    1.95738910035879    2.10967387278800
H         3.71211935457624    3.25388605485728    2.45616598387498
H         3.49589185874842   -0.34519841966947    3.79729574487573
H         5.06038683934488   -1.80327305653242    2.57383376846262
H         4.37801474505087   -2.80843127728179    0.41881847920531
H         2.13986478136965   -2.34344376902111   -0.50080874203706
H         0.58673612884789   -0.86326835031805    0.70122176513314
H        -0.95421996121088    1.15182646927316    0.96352223311521
H        -3.13586341634101    0.19815601251190    0.39011239222753
H        -4.21585971728164   -1.43666081008808    1.88768054256910
H        -3.10177159303371   -2.09967615418226    3.99000625901534
H        -0.92415743798032   -1.10140562943765    4.59418266340452
H         2.44081398540807    1.45497571046942    0.79419349325412
H         2.39660517778382    3.50146048285918   -0.56114319727266
H         0.90339506692257    5.36667973173621    0.04637679029198
H        -0.56704438404874    5.17439121177210    2.01942607714481
H        -0.53319878796003    3.11184927153014    3.38077022319534
H         1.02381824707143    1.16065047069264    8.34848931424596
H         0.78756109895856    1.20164247602335   10.80003722782968
H         1.25913200727949   -0.82463935221627   12.12316259680506
H         1.98813792911735   -2.89133614387334   10.98747174981380
H         2.23141263125442   -2.93700967994702    8.54183572010177
H         4.12860200484459   -0.57752599384331    8.15435098971112
H         6.38712013690566   -1.51952833178992    8.21838222930377
H         7.08012215290440   -3.20127288013463    6.54758946277545
H         5.47449169266074   -3.94278194954019    4.82348246782459
H         3.21258588464209   -3.03300124801591    4.76681721259410
H         1.39805087055770   -2.23997206326519    3.93936310915559
H         0.10593310031513   -4.18601455519359    3.18947293161181
H        -1.33376548887779   -5.40384492369185    4.79053646402227
H        -1.46150668653904   -4.64884471727086    7.13510217940018
H        -0.12278976574794   -2.75306264125108    7.90313179332612

