26
CSD_code = OGIMOG | q = 0 | S = 0 | Stoichiometry = C6H11Cl2N3O2SZn | MND = 5
Zn        7.49062122600386    2.45281021513874    0.25780153328905
Cl        6.54460896022042    3.29159903242895    2.01615434659871
Cl        7.41719539448617    3.53681910840501   -1.77102834116654
S         6.37479661612300    0.11636977214417   -0.42456667725805
O         9.64974487586750    2.84224175029570    0.84960239396830
O        11.67316151275866    3.13865919462305   -0.04483083923905
N         6.54437380600406   -0.44964003221770   -2.98687971192875
N         8.39655630479622    0.57097826641829   -2.08523878401960
N         8.98155637934589    1.24556590674810   -1.11222406722718
C         7.11789344948877    0.10022699236051   -1.91013429910255
C        10.12373726676361    1.81196590637028   -1.22384069503508
C        10.45400514187640    2.62945381999289   -0.03934200097404
C        11.99754738446100    3.99073160705128    1.05197774609456
C         5.18506195570546   -0.93439362728838   -2.96222808627977
C        10.99066774201580    1.82067175034239   -2.44015734830307
H         6.95905500005411   -0.29415441501615   -3.89466128679898
H         8.75839038547952    0.64955626270315   -3.03658066029116
H        12.99790924089901    4.36660783894854    0.85464036422111
H        11.97181828539158    3.42780302007225    1.98635729074356
H        11.27914952622306    4.80957042661557    1.11623506036669
H         4.99983769379396   -1.51592541203691   -3.86090247824471
H         4.47397776558635   -0.10709487966252   -2.90521885820073
H         5.04840292926898   -1.55948516066429   -2.08110186083456
H        11.11740334408074    0.81310726694703   -2.83611987825306
H        11.96379578553942    2.23468335497432   -2.19914178100594
H        10.52733202776348    2.44637203430904   -3.20557108112377

