45
CSD_code = OGITIJ | q = 0 | S = 0 | Stoichiometry = C20H16F2NiO2S4 | MND = 4
Ni        1.52537968316858    2.62854883374698    6.87058800465518
S         0.35728252410389    1.99598731266546    8.55675660067480
S        -2.38876382203881    1.62228808446803    9.56762680519305
S         3.32152692608626    2.09889943688502    7.92151694783731
S         6.26860520006684    2.10267737040348    7.78727996903413
C        -1.31083854187467    2.15180229390886    8.29000144689253
C        -1.94441680366537    2.65790247585712    7.16944616320098
H        -3.02262750498137    2.64925221469484    7.17325056171675
C        -1.26163610299743    3.14381050814351    6.04420220888694
O        -0.00667085285001    3.15538876153727    5.91591058562491
C        -1.26818112184068    1.03253900647190   10.86142446546577
H        -0.66500074300499    0.21790581700686   10.47316983268716
H        -1.90144852917464    0.68833590104616   11.67270772678138
H        -0.63406702003150    1.84984535540128   11.19015955501389
C        -2.03573757814397    3.66757652609907    4.89047116680048
C        -1.42251075274545    3.64460990047167    3.63667454430891
H        -0.42451936927432    3.24087701472839    3.55563462278427
C        -2.07811155129933    4.12071014877392    2.51953205725160
H        -1.61835499979477    4.10100660479063    1.54411233520055
C        -3.35503506331809    4.63303240941572    2.67075206064799
C        -3.98097480321974    4.68640298847160    3.90414348598119
H        -4.97118305034300    5.10657871047272    3.98293459027992
C        -3.31647731499591    4.20158583186070    5.01462618104326
H        -3.79263010901189    4.26488491414630    5.98024982082511
F        -4.00586542661891    5.10128663473543    1.58827256167869
C         4.72366015097464    2.43747355190948    7.02854234365091
C         4.80651792335371    2.95344880992745    5.74783975527683
H         5.79544762450630    3.12912176359197    5.35561197874879
C         3.68671922335239    3.27796700761623    4.96744633732603
O         2.48905170401080    3.15670998018104    5.34460260751149
C         5.81852996398835    1.45274955236992    9.41586835594140
H         5.25243615702396    2.20206885978172    9.96016731796719
H         6.75415945729163    1.23655226611478    9.92143437061900
H         5.23058913380362    0.54847646899532    9.29420639431694
C         3.88340027563881    3.83145800575398    3.60378483651103
C         5.01437733536397    3.56994487137351    2.83364235813734
H         5.79638487026253    2.92890694429112    3.20872499819096
C         5.13301718533561    4.10435031723004    1.56469956237013
H         5.99970923792597    3.90882210951352    0.95325033140110
C         4.11319863940305    4.90109274545748    1.07366503729184
C         2.97230709805286    5.16694177166554    1.81092024042390
H         2.19459034307926    5.78705165382918    1.39400605374679
C         2.86261402539797    4.62276502032244    3.07435949572976
H         1.98520090148817    4.80686193262620    3.67589277344445
F         4.23264547755720    5.42590131124760   -0.16120944905448

