57
CSD_code = OGIVEH | q = 0 | S = 0 | Stoichiometry = C28H22O2PtS4 | MND = 4
Pt        8.07658454422109   16.15390557939714    2.26623751975681
O         8.25504295959707   17.82980935020068    3.41746607778757
C         7.49340322192361   18.81173943169379    3.64053647439228
C         6.19882872883823   18.99556165146294    3.12854844776830
H         5.69544100209208   19.92137691632940    3.36626976355622
C         5.48533500195262   18.12833377162878    2.32201789753306
S         5.91923214829630   16.60698707747838    1.69978949713293
S         3.87997738541630   18.71793819313605    1.90891153377276
C         3.19224235666701   17.41996944507265    0.85108025417987
H         3.82352805585470   17.29328314758580   -0.02289127284663
H         2.20321542506103   17.76183404668570    0.56348634668579
H         3.12920078343928   16.49162651497995    1.41009541264054
C         8.07267524801239   19.86189952682363    4.51561671758018
C         9.44590262660515   19.95066816273045    4.58473896241780
H        10.04790240717865   19.27724211711528    3.99165560061282
C        10.07962302013810   20.89924666373766    5.40533004400319
C        11.48544029618888   20.99846526503589    5.48579384710161
H        12.08659241391250   20.32365735988769    4.89323653580456
C        12.07064951031849   21.92795776187881    6.29859439469122
H        13.14680755492783   22.00070739050376    6.35854276039594
C        11.27944409995549   22.79972241136635    7.06414406860782
H        11.76029083629524   23.52894695210145    7.69972648825021
C         9.91508028876560   22.72703187607623    7.00827094269373
H         9.30406297918750   23.39562897786793    7.59782641650191
C         9.27962015845598   21.77807962446986    6.18237770226243
C         7.87484629889034   21.65948460001047    6.10738587227503
H         7.26801339805641   22.31808718123027    6.71241392407557
C         7.28383554805486   20.73065775870164    5.30052027443659
H         6.20859811739263   20.64171926895320    5.28537863562478
O        10.03064139858672   15.93340956981028    2.81984106789864
C        10.88413770664332   15.02332265115607    2.62872566156969
C        10.68575170417680   13.82546733754811    1.92330382565721
H        11.50433936817841   13.12067745501426    1.90249254732407
C         9.54114999581270   13.42090771024887    1.26158551029265
S         8.04725388431998   14.21139546127275    1.08064418227987
S         9.69691330324015   11.84779658931555    0.48949210984935
C         8.07900660010473   11.57016707671967   -0.27406365748706
H         7.88903976535788   12.34284690494571   -1.01246743494029
H         7.31031713192059   11.58212574447006    0.49225563996115
H         8.13475099717917   10.59452106213721   -0.74612926717340
C        12.21185516603515   15.27262432388407    3.24557262659645
C        12.25064619927258   16.12978376643357    4.37024890922754
H        11.31735947725522   16.53355536737769    4.73327925293666
C        13.43190307617647   16.43312683276453    4.97790031619837
H        13.45307819791252   17.08442089678348    5.84022499745970
C        14.64925514489521   15.90676673636398    4.49398821875360
C        15.88841392403559   16.19850500871321    5.09844903131943
H        15.90301911073586   16.84208457224634    5.96660691491024
C        17.04923165605689   15.67770345873806    4.59781700219483
H        17.99546710087425   15.90479694250622    5.06665598186989
C        17.02352067460005   14.84370388053417    3.46882465016420
H        17.95052406163903   14.44228978056311    3.08653551025947
C        15.83798430415975   14.54264877360424    2.85946832214968
H        15.81361255411267   13.90044062152537    1.99073544794246
C        14.62140436434492   15.06024540074952    3.35388420200479
C        13.38607727121658   14.76035828143015    2.74687051621981
H        13.39052944545163   14.13903976902872    1.86345677488559

