54
CSD_code = OGOGOH | q = 0 | S = 0 | Stoichiometry = C19H26Br2N3O3Rh | MND = 6
Br        5.94385027580437    0.54707354329231    9.96183419462137
Br        6.28272762692376    0.10716583992526    4.99868104749370
C         9.20496408665546    1.05514875129875    7.54422649410435
H         8.99639561488010    1.82417409907130    6.78929696341914
C        10.43841395851379    0.22801088969574    7.13953795032639
H        10.73134089323686    0.40855287517221    6.09966348316295
H        11.30077484678374    0.38498090437976    7.78725847720382
C         8.69133944136025   -1.13000331547258    7.41040549038188
C         8.04828707023360   -2.38307058036145    7.44765744472421
H         8.69390453119519   -3.24209023016810    7.37413455310423
C         6.70350064928080   -2.56773885350219    7.57468127804569
C         6.09209637699870   -3.94119940322231    7.66119771022805
H         6.56526668704390   -4.52549272256953    8.44978240364550
H         6.24178816886061   -4.46788738504955    6.71713049533465
C         4.61878590348334   -3.64950938439308    7.92989182850786
H         3.94830010457002   -4.13867656601624    7.22401127527698
H         4.31840092053974   -3.94297103870387    8.93724451237923
C         4.53531373968448   -2.15198104945319    7.79473674728685
C         3.34659118507861   -1.48716121817364    7.85396277022292
H         2.44102056630648   -2.04179412327826    8.03405542229055
C         3.18928211847580   -0.09678302922197    7.68762748193027
C         2.03943982455431    1.81407495869930    7.69610977345882
H         1.83934893073144    2.24370161722667    8.68345252753132
H         1.28097110508122    2.16055414743391    6.99410928889322
C         3.48057654627076    2.08547519680572    7.22731258678576
H         3.96070437207007    2.82617272494668    7.88000299990486
C         3.59046389357623    2.56909673038091    5.76445610810784
H         4.65360448428300    2.55992412478125    5.50012625254337
C         2.87234191871134    1.64182855350836    4.78771208490691
H         1.79394061691045    1.66231921139605    4.92672898926271
H         3.22230000702648    0.61871726076115    4.90217176109577
H         3.09003057139263    1.95168116059953    3.76933840983404
C         3.08697978787163    4.00463728502520    5.64698779167801
H         2.03120954977389    4.07350988238430    5.89974226925934
H         3.21739863908268    4.35672823215298    4.62721345734924
H         3.64224273436222    4.66406101837805    6.31073058650251
C         9.32468866071561    1.73526440783244    8.92600761633933
H         8.33982522495999    2.14845211400033    9.16973639664464
C         9.68904553780910    0.74745284672247   10.03101586344500
H        10.69089220069281    0.34482646055315    9.90082999111636
H         8.97984523863998   -0.07639449461739   10.05812847508712
H         9.64600081979885    1.24998142815057   10.99338474853953
C        10.31795813486544    2.89147290939470    8.85848078644719
H        10.35502099437007    3.39928924825013    9.81847129427922
H        10.01996930328929    3.61276171334937    8.10046188576109
H        11.31883003926211    2.53802437060337    8.62087957811156
C         6.46236165946840    2.22562645748135    7.34410704088447
N         8.14415894394820    0.04844768486039    7.52983210658377
N         4.11488346546537    0.78107277951862    7.41426644919119
N         5.75889738062085   -1.60174862205260    7.62655975717866
O        10.02122793784358   -1.12480538053538    7.25933851199739
O         1.95115455246286    0.39961164509800    7.79581593009561
O         6.66694234388595    3.34413249753851    7.27455181752720
Rh        6.12929981429401    0.41250182612001    7.47331883996729

