56
CSD_code = OGOGAT | q = 0 | S = 0 | Stoichiometry = C27H22N3O3Rh | MND = 4
C         3.33278609349590    0.85307928182600    0.31416712277942
H         3.86421902552350    1.56348488252828   -0.32523714688757
C         3.86602649418527   -0.60454840810373    0.26357995754490
H         4.80695762246459   -0.72299670704612   -0.28123161578045
C         3.81974746473561    0.16751625649107    2.36701641480160
C         3.79604028349600    0.05642843044239    3.84873946278265
H         4.41754022419024    0.84070003165972    4.29426215730448
H         4.15047789218008   -0.92424096556414    4.16117968008164
C         2.34830695716938    0.26695416650882    4.22367745638654
C         1.48441203359295   -0.50030013553071    4.97666169982817
H         1.71261677109899   -1.42178764892942    5.47837777206553
C         0.25241610732857    0.17916438286056    4.97949673071810
H        -0.65177927112906   -0.12930562357074    5.46958948654703
C         0.42977610342812    1.30630504951696    4.20481386171147
C        -0.51802455372383    2.42598399045848    3.84576903642232
H        -0.70423608712639    2.42913663218673    2.76631938227411
H        -1.45850071038316    2.34192829964485    4.38745823063374
C         0.19940922456482    3.66512498712601    4.24345316692214
C         0.68383801785599    5.40536996007290    5.57009146142848
H         0.21636111096966    6.38303317430266    5.42227523462649
C         1.85422158608114    5.09951947586858    4.59636777705563
H         2.18435156010434    5.94586637259013    3.98762873341536
C         1.21307391503991    5.21561373043765    7.00097749636739
H         1.29652789361033    6.17458059455391    7.51590909682720
H         0.53353664008259    4.58020936736039    7.57048934388915
C         2.55963510882330    4.57763781593205    6.82139163712727
C         2.94031012693016    4.54767084290768    5.48541213582861
C         3.38832559223808    4.04888637664349    7.79285134668282
H         3.09818299440592    4.07034512059155    8.83266892716999
C         4.59083796874674    3.47637127587935    7.40680773177894
H         5.24301666984455    3.05139861725378    8.15535701094148
C         4.95896400706288    3.43459391226448    6.07149738766234
H         5.89725763196178    2.97941084241967    5.79041616902722
C         4.13459279918224    3.97136286807979    5.09282749381075
H         4.41710391650508    3.94252111862028    4.04327411622545
C         2.74196228846669   -1.48707555422812   -0.30352258755463
H         2.99388352216344   -1.84441873135678   -1.30381601417814
H         2.58637672248443   -2.35434437917678    0.33963559392918
C         1.53924475530288   -0.58986755447238   -0.33481381752897
C         1.87004181134081    0.72471125270447   -0.02949783271835
C         0.22878674894912   -0.93119257150146   -0.61106074209551
H        -0.03394356402205   -1.95082524102214   -0.85047288522113
C        -0.74426274228185    0.05545675433526   -0.55984154275497
H        -1.77331505271704   -0.20019514371380   -0.76491386882698
C        -0.41200776876213    1.36194659185791   -0.23854929557347
H        -1.18514022474155    2.11512470892711   -0.19840577624461
C         0.90336497417260    1.71187387068507    0.03129858726800
H         1.17137696294993    2.73506925405719    0.28285567395030
C         3.20661652507174    4.09144358511571    1.56063572466346
N         3.46891980604584    1.21395180814190    1.71647232782307
N         1.32817263470115    4.03163440402762    3.76078777583153
N         1.70552793889778    1.36240627588159    3.75015845209948
O         4.12125651686373   -0.91276381033279    1.63741166607736
O        -0.28893502298191    4.40809964299368    5.24335080843213
O         3.66195438934080    4.92037998011719    0.89400544795338
Rh        2.48578956429210    2.78086648868357    2.61204634865971

