75
CSD_code = OGOMAA | q = 0 | S = 0 | Stoichiometry = C31H39FNOPPt | MND = 4
Pt       10.20452207718731    2.23730731100232   12.22246985784130
P        11.05325006142335    4.22706266523049   11.58881374418267
F        10.46165212451856    2.35452408552534   14.18105108585523
O         9.93324552060567    1.96765390942441   10.22191348741567
N         9.41900450449582    0.39117254286141   12.55433510534148
C        10.90346027389073    4.10529553810504    9.78915843558771
C        14.57015606336615    4.45003624731677   13.80650390521429
H        14.70678352755944    4.63188209011613   14.87828932131293
C        10.00987738557112    5.68869414501128   12.13141382052548
C        12.88693531540574    4.33608634143136   11.96491207617250
C        15.36748754851076    5.48061369214484   13.00764133407306
H        16.42849175707349    5.40815744013199   13.25731137367017
H        15.03362327012672    6.48951897589803   13.26241902930988
C         9.93359005798801   -0.41821222005366   13.47762362516734
H        10.75617882598417   -0.02466644454980   14.06042184434882
C        13.38693251887084    2.92544125214216   11.62015719170808
H        12.80345376384908    2.18579688872572   12.18998435069880
H        13.23295179684588    2.73160285976664   10.55393017253034
C        15.05543979413115    3.04346615239643   13.46344350086780
H        16.10922717315562    2.93623474662279   13.73093727713565
H        14.48451002586419    2.30944932549182   14.03505586982581
C        13.08795004936296    4.58684275479553   13.45868332724761
H        12.49206739721195    3.87115726105477   14.03008455086930
H        12.75761127349032    5.59568109458027   13.71566345649946
C        10.32183127703027    2.87974888420493    9.38048701450244
C        13.68596866868632    5.35123408668557   11.15163888371675
H        13.56235618292006    5.15429832450712   10.08511638740928
H        13.34455009045583    6.36759874969990   11.35697714988675
C        15.16972028997909    5.22695095514241   11.51387978107096
H        15.73908154568564    5.96697876447513   10.93920566877652
C         7.41079269985968    6.40574007747161   13.31554353773535
H         6.67762475800762    7.14921591640780   13.63715378197128
H         7.00314773909848    5.41561606403860   13.52854112522317
C         8.24023696288409    7.93616631706652   11.52149286190344
H         7.52095239771707    8.70255469563646   11.81903700200325
H         8.41839560176963    8.04226902951470   10.44872769163504
C         9.73292816909444    5.54281338344503   13.63073147659387
H         9.34770815769103    4.53896023869052   13.83274414966288
H        10.65202526198475    5.66188544681099   14.20394045281181
C         9.54760482243606    8.12891592281253   12.28869250547357
H         9.94877274105280    9.12776718436951   12.07927359085075
C         7.83084103044542   -1.28852692112817   11.99499082740418
H         6.99579180528022   -1.59353742214463   11.38431248518518
C         8.69010293764655    5.49675032686308   11.37396438666287
H         8.31007819663135    4.48601175585603   11.57545579610172
H         8.85788359016112    5.58388267036052   10.29731423557100
C        14.86717337387571    2.79560586180257   11.96790777767586
H        15.21344641756069    1.78705363005625   11.71552050346430
C         8.39006838230403   -0.03471750298005   11.82469214397628
H         8.01873515490085    0.64780572162885   11.07176167187391
C        11.07642789729951    4.83529260353131    7.50308814725772
H        11.35596351896379    5.58586960648412    6.77917751628136
C        10.53005119907638    3.62711581433752    7.08612559284597
H        10.39075810130624    3.44028667835939    6.03059405225276
C         9.28278276517337    7.98992388923308   13.78710232334760
H         8.57190947276041    8.75424941234930   14.10942821549031
H        10.20982335711152    8.14003798781420   14.34556501475643
C         8.72111908888612    6.59782333338825   14.07490390344705
H         8.54024585462242    6.49165956260495   15.14991417548098
C        10.57041720294839    7.07780870759944   11.84497562658474
H        10.77154478664552    7.19605146683655   10.77863193264630
H        11.50354291224069    7.23067899112846   12.39198530156231
C         7.67567475455322    6.54696053777260   11.81856539815010
H         6.74099151046086    6.40656216179466   11.26378286802847
C        15.66532788312451    3.82408537372037   11.16772826632349
H        15.54272375870456    3.63918266622637   10.09801229357397
H        16.72842398462989    3.73704458049396   11.40357880739206
C        11.25784037444581    5.06858833709962    8.85207955109426
H        11.67357595107522    6.01150448359756    9.17699463558318
C        10.15632893322932    2.66773643998488    7.99748345971894
H         9.72246710654620    1.73288513833188    7.67446264506581
C         8.36043259905064   -2.13557460915048   12.95672149147889
H         7.94615008134493   -3.11999972090984   13.11441917153380
C         9.43431604853614   -1.68789314716614   13.70989729305077
H         9.88034049765368   -2.31072111802590   14.46906166994181

