30
CSD_code = OGOMUT | q = 0 | S = 0 | Stoichiometry = C13H10Cl2N4Pt | MND = 4
Pt        2.17585504933317   -1.05640875544651   -1.14763513129879
N         1.24295962961909   -1.56349197577879    0.59186273762632
N         2.18534291238724    0.70113376131092   -0.28151141402516
N         2.59971551421833    1.87245466176013   -0.59091946021158
N         2.31927493160191    2.69122007297176    0.41743741365607
Cl        3.21173298437598   -0.34005538412397   -2.98159441611997
Cl        2.08251067230558   -3.11120863209805   -1.99250949938912
C         0.79643518597616   -2.76886183061737    0.93758698635969
H         0.94811493465431   -3.54956732388803    0.20254131781237
C         0.18130109394060   -3.00733263753800    2.15256828256154
H        -0.16524108590322   -3.99946074220809    2.39124577624667
C         0.01940952478719   -1.95874722224303    3.05075968400799
H        -0.45628683125044   -2.11758446641149    4.00594042990004
C         0.48063415973069   -0.70355383095213    2.69709443717210
H         0.37728646670596    0.13993482792990    3.36095503550016
C         1.08918259819296   -0.53543892065149    1.45800315614226
C         1.61172047555247    0.71534969099358    0.96272045417049
C         1.70104032162138    2.01520695035953    1.41491160788099
H         1.39184306937697    2.46268936518250    2.33406444804824
C         2.66579503079631    4.04915492239773    0.34170502602478
C         2.20795028390491    4.96602088908531    1.28129972303706
H         1.56541107352813    4.65928473798078    2.09170362936656
C         2.57273833876906    6.29525936448455    1.16445490330030
H         2.21688955743606    7.00862038204413    1.89204331720598
C         3.38341923408730    6.71109783939119    0.12123371610799
H         3.66179169889013    7.75019401384156    0.03751120604609
C         3.83196696958281    5.79295083989882   -0.81551908450958
H         4.46082476432763    6.11396191061175   -1.63123359905990
C         3.47772707874297    4.46176046919960   -0.71145580298863
H         3.81185436271859    3.73071702251678   -1.42986488056888

