21
CSD_code = OGONUT | q = 0 | S = 0 | Stoichiometry = C4H12Cl2PdS2 | MND = 4
Pd        2.76336127471420    2.96958614567341    4.82992994789083
Cl        0.60757721918672    3.55763414991386    5.34047581837681
S         2.38277195849873    3.93643796128835    2.75814494072338
C         3.48751040419093    3.21446126571024    1.51495556042124
C         3.38727269561558    5.38010723406067    3.23787172883774
H         2.99063023265748    2.33433175076375    1.11762963699483
H         3.63494817430655    3.94642635337255    0.72560988943095
H         4.42816396788765    2.93444734975352    1.98546989922382
H         3.41468838594258    6.08518473351285    2.41036738510107
H         2.89876676169320    5.83865881987168    4.10144603659961
H         4.39281770876107    5.04338742369797    3.49798741323969
Cl        4.92001651248471    2.38151528016112    4.31910652400758
S         3.14557799583197    2.00368878160278    6.90168561599518
C         2.04028968465928    2.72501334134140    8.14477519028067
H         2.53682465652891    3.60527288498397    8.54222222820915
H         1.89303992274436    1.99293844443070    8.93405281234508
H         1.09959055775212    3.00474140438187    7.67417775017850
C         2.14158456682669    0.55979742930009    6.42158712285164
H         2.11414172109068   -0.14535269843585    7.24902047924379
H         2.63053872651790    0.10138678924036    5.55818766799782
H         1.13598687210886    0.89613515537463    6.16109635205153

