84
CSD_code = OGONOP | q = 1 | S = 0 | Stoichiometry = C36H42N5Ru(1+) | MND = 9
Ru       -2.24513142659740    1.34830569707590    4.08866516020379
N        -3.29016996932234    3.06388927977962    3.42685775691235
N        -1.17746977343300    3.10400832988930    3.91193514874857
N        -2.17342283237412    5.11368457638863    3.01850498880190
H        -3.08115715504199    5.53792263075160    2.88192594610906
N        -1.89412232126818    1.11419474551803    2.04510719566140
N        -2.15232759137732    0.78112226101628   -0.09812776949372
H        -2.58237840179809    0.53635641807606   -0.97606984856014
C        -3.03103403585108    1.14784521967468    6.21445687467485
C        -3.79905703844801    0.29073166191528    5.37688997093261
H        -4.88204772797748    0.34227298218601    5.42098997495381
C        -3.18925396233575   -0.69562313015967    4.58975130598459
H        -3.79666925373892   -1.40881753894134    4.04323153348487
C        -1.77158983800628   -0.84108336722804    4.58534585819506
C        -1.00345971968012   -0.00416234206760    5.41626349350143
H         0.06398373388827   -0.16613457291201    5.50713967016878
C        -1.63089471208706    0.98943011972094    6.20837376402850
H        -1.01807488078581    1.58382139788626    6.87714372169013
C        -3.71008039253501    2.10598146933854    7.16536898634505
H        -4.78704533748732    2.08320604055367    6.96317208688649
C        -3.48530353359262    1.64869585597358    8.61026539542071
H        -3.82821856974133    0.62552336425341    8.74812481411685
H        -4.03808191307474    2.29056587597504    9.29084426449071
H        -2.43166035942722    1.69849997248563    8.87382620431646
C        -3.21896843656584    3.54002986829703    6.95982379868641
H        -3.37136690245021    3.83963894840368    5.92334609960921
H        -2.16190672383686    3.63236340118769    7.19886355988747
H        -3.77473230064307    4.21769674109712    7.60275395878656
C        -1.13197296608062   -1.95853472851899    3.81529159895976
H        -1.68381894241745   -2.17657936133186    2.90282528440272
H        -1.12545769350651   -2.86131788785726    4.42814481091531
H        -0.10271174184392   -1.71972884509155    3.55663491389964
C        -2.74279061642024    0.71209130909947    1.11268783359839
C        -0.88066212888619    1.24636470422267    0.06964975113264
H        -0.20421195026625    1.39038155371915   -0.74614292016344
C        -0.73126860872337    1.45018791675529    1.40602888845490
H         0.12465523290721    1.80443555587165    1.94626051116874
C        -4.13198449017087    0.23599638139779    1.31174003256368
H        -4.81012784179006    0.75201016484023    0.63470848566295
H        -4.44326838440267    0.43960639434045    2.33358702148984
H        -4.20274720921008   -0.83413319186888    1.11805449129757
C        -4.35482786784716    3.25442735293876    2.55340077480530
C        -5.64638604700278    2.92289875276949    2.97100256414788
H        -5.78856427588163    2.56088278194408    3.97835810597788
C        -6.71805037527206    3.06363495801143    2.11486892098867
H        -7.71072853498203    2.80851691952735    2.45531195669259
C        -6.54450361995443    3.53831818340833    0.81735659984783
C        -5.25768367218857    3.85993224502725    0.40089712678501
H        -5.09947691762234    4.22558184156213   -0.60360966452321
C        -4.17432960029351    3.71786439570912    1.24590917474889
H        -3.17817784954603    3.95293152886085    0.89488678633021
C        -7.71894899212077    3.70942979994123   -0.09308421645892
H        -7.40170247510576    3.81599106727295   -1.12715168748992
H        -8.27657858820201    4.60400869079480    0.18397506098661
H        -8.39673264899997    2.86193154633767   -0.01514617240244
C        -2.18416524134771    3.82023165953405    3.43069944081724
C        -1.05449530559181    5.91516643089551    2.74015598444501
C        -1.14121751022740    7.28882034751796    2.93210279052169
H        -2.06457505999251    7.72280533332354    3.28763339098467
C        -0.04797815680450    8.09408100355471    2.67592598892890
H        -0.12751115838179    9.15909560437067    2.83470640681763
C         1.14965087714943    7.55351440735433    2.22531938117242
C         1.21336183615004    6.18149471519051    2.00747340120998
H         2.12871931634855    5.74485387260968    1.63655897129954
C         0.12566257066827    5.36705015837095    2.25029892534032
H         0.18460505074797    4.30810952499694    2.05225720186399
C         2.34064439821036    8.41815384854958    1.95607433683486
H         2.17495102442843    9.43223940117125    2.30859625985780
H         2.54540229331142    8.45495337243464    0.88654108203414
H         3.22377915418112    8.01459776796525    2.44774386101607
C        -0.05447886781676    3.54610883699769    4.58979639760987
C        -0.03867723035891    4.73932444836715    5.31897542422965
H        -0.92566418465064    5.35231553566098    5.36531575612120
C         1.10360337349813    5.13087957171622    5.98421911059692
H         1.10077628927287    6.06028112406876    6.53446489217849
C         2.25645124291748    4.35168436859291    5.96802549307109
C         2.22631368287634    3.15084415196268    5.26998984670625
H         3.10439168725248    2.52151256300465    5.25343401782213
C         1.09290910423953    2.75135275224502    4.59121512566720
H         1.08205295520266    1.81235506351150    4.05437990713284
C         3.48582108503594    4.80389991944269    6.69094784421541
H         4.26905997596170    4.05244451251579    6.64005684180546
H         3.26191528604133    5.00539915551527    7.73735277944024
H         3.86209169307314    5.72693461273959    6.25151919191673

