70
CSD_code = OGOPOR | q = 0 | S = 0 | Stoichiometry = C29H27ClN6O6Ru | MND = 9
Ru        7.05406977321044   10.99429249294456   12.19576308518909
Cl        8.74018104127201   12.37090639788297   13.05667941782143
O         2.53367807125117   12.71162860943970   18.56957551582728
O         2.53797765251686   14.41952512333184   17.26176352764536
O        13.36863859619708    6.81658311398714   11.47146111398328
O        14.11523621222102    7.99420943452444   13.10767378708055
O        10.98601638650235    4.19849883222274   16.56982822805546
O        11.68241355300290    5.29556996453100   18.28317018191913
N         6.56311529483685   10.79075684147582   14.20744283679297
N         8.04706639035354    9.49015873665001   13.31340475812738
N         7.93127268658643    9.57787185660971   15.72943382041809
H         7.77890692055585   10.28652582027590   16.43619117957022
N         2.91331625841757   13.30909669451072   17.58146710080024
N        13.22218985684491    7.59686630848437   12.38945050574528
N        11.02591383869036    5.18908494898279   17.26921926428346
C         7.53258658472501    9.92266993691304   14.46062497006429
C         5.69668963219444   11.38118462993073   15.08613290967449
C         5.27273233632742   12.68960795959688   14.80265017582957
H         5.70103541713202   13.18263002101556   13.94074893076150
C         4.37151323823250   13.32627173848210   15.61922937514836
H         4.04646508325475   14.33655517009529   15.42327449801506
C         3.86512036763866   12.65711032584022   16.73325347276254
C         4.26684292161111   11.35628884220795   17.02451788584047
H         3.84812701486596   10.86125141135176   17.88753945407647
C         5.17618683903077   10.71987431318392   16.21127316424220
H         5.46091829281481    9.69895910483121   16.41558763630245
C         9.33597064994529    9.02325563942486   13.13239566148681
C        10.42512934859711    9.53503126339813   13.85332371672524
H        10.26784583119673   10.33116195455442   14.56464010987692
C        11.69559745216648    9.06685077158912   13.60866423352634
H        12.54750790861239    9.45668339843667   14.14438819527061
C        11.89452844286579    8.08504502378667   12.64286613958772
C        10.82761228315403    7.57992848074889   11.90591868586122
H        11.01722317156827    6.82567250249755   11.15751154196523
C         9.55804436474899    8.04887100910047   12.15054508875947
H         8.71371414425067    7.66850795993972   11.59613540641078
C         8.70219581486415    8.48686839791825   16.09131071882935
C         9.51059814435256    8.56824665453328   17.22887707921118
H         9.53928149483012    9.48462693395101   17.79874185698162
C        10.27476957456155    7.49054325534430   17.61461142948435
H        10.91381083320399    7.53737597745181   18.48279600824628
C        10.23022426792769    6.31700920254106   16.86875565482972
C         9.40691962025899    6.21399679634328   15.75205810731394
H         9.37365809979150    5.28261371250810   15.20843832264508
C         8.64023151127076    7.29069651042283   15.36962498529763
H         7.97713243333725    7.20934687089756   14.52373376133242
C         5.59135724571111    9.85124943152335   10.88344770743578
C         5.00000761966108   11.05597577533580   11.32715852839774
H         4.02581169059316   11.03357144910892   11.80294232990103
C         5.59524821453557   12.31338960019741   11.05242733920522
H         5.06515186631437   13.22451357638101   11.30692422744241
C         6.83196546242760   12.39083100136028   10.37960008471903
C         7.46319558444457   11.18132215633889    9.97993012691524
H         8.38722637333501   11.22391213699171    9.41355097403570
C         6.84485136892089    9.93953414363669   10.22732180418726
H         7.30519647400173    9.03579404604874    9.84064101836120
C         4.90232334091847    8.52010781497736   11.06950765576187
H         5.54938889191654    7.74022326474549   10.65164591443318
C         3.57255252813695    8.49315750248863   10.31078565641197
H         3.12198535571893    7.50709157113162   10.38884021650155
H         3.72846236332655    8.71846837290872    9.25798742583560
H         2.87530177095093    9.22015595797452   10.71983038134917
C         4.69543724881399    8.22020421912062   12.55628912790314
H         4.28408100593556    7.22201345400619   12.68436925521244
H         4.00952529215418    8.93395550896351   13.00671892199829
H         5.64814210043434    8.27758665774197   13.08239699044008
C         7.47583290252477   13.70998580539141   10.09023271802151
H         6.74703440803978   14.51681719304258   10.11383759215722
H         7.96956828059518   13.69539953757525    9.12068124207378
H         8.23464695884543   13.91302887820392   10.85013926155264

