95
CSD_code = OGOTUB | q = 0 | S = 0 | Stoichiometry = C35H52Cl3N3OPd | MND = 4
Pd        2.63150123986805    2.54797098874849    4.18031725186038
Cl        1.11307977299642    3.93808951628427    5.21918278541799
Cl        4.33803913245988    1.48216745737827    3.07737570362137
Cl        5.99715500331293    6.48132675978696    6.39778095827554
O        -0.43755895953169   -1.08750214824761    2.16234007932111
N         0.39754874085054    2.30272445256219    2.19262972868106
N         1.06616873214989    0.41751206500932    3.06264489257945
N         4.07460297929003    3.17923225887513    5.44336432917719
C         1.27008943739458    1.77198004315470    3.02698755258385
C        -0.45252777904872    1.29969429768044    1.59323977357922
H        -0.31856052167644    1.24175547941656    0.50879912042529
H        -1.51091672923381    1.47290983370748    1.80040720661529
C         0.01735046722784    0.02029705354319    2.26452561881401
C         0.31926355283319    3.71384271149101    1.84915761168858
H         0.74900224338818    4.24921186870159    2.70137865749165
C         1.14606226724943    3.99940601331895    0.58835568015752
H         0.78661597864894    3.36415442641546   -0.22616360548375
H         0.96966704946750    5.03263537295010    0.29220425739644
C         2.64829227702546    3.76924640761033    0.77018980058887
H         3.13573541499530    3.91742495614448   -0.19661653026157
H         2.82465054703879    2.73058073220037    1.06830166510345
C         3.32193466644399    4.67651536948178    1.80570016022639
H         2.81781038667894    4.56495442169167    2.78168813660084
H         4.35308685824623    4.32769576968895    1.92461310552998
C         3.34597706837465    6.15224050349306    1.41433255300160
H         2.33532097148321    6.50773713153015    1.21501914352051
H         3.92149098770821    6.25933977195968    0.49159125299903
C         3.97474395330824    7.02477765959101    2.50474504484427
H         4.34006978448012    7.95276947147110    2.05800315733876
H         4.84359462107138    6.50064479363217    2.91268230342664
C         3.01511187684164    7.38572574023893    3.64294533779001
H         2.50009709723826    6.49136746048296    3.99866447879962
H         3.59998068468552    7.78816848533441    4.47444037973303
C         1.97862296515799    8.43130206423202    3.23077225562844
H         2.48893941726725    9.22927568346446    2.68307150722760
H         1.25396067159389    7.98071427112856    2.55469111881514
C         1.26001360000830    9.06868414289596    4.42300749260075
H         0.68209082015981    9.92539231768302    4.06667818855842
H         2.02628270057967    9.45964716518707    5.09788919755091
C         0.32858903978490    8.14243008515575    5.21624223343884
H         0.69030140522505    7.11614772796811    5.18369178422878
H         0.35373024237946    8.44982751627377    6.26463894404261
C        -1.13762902789997    8.19139765097763    4.77713239418185
H        -1.72502777334897    7.61136477382114    5.49333578873501
H        -1.48292234806806    9.22766158335235    4.83246597308235
C        -1.42608404632850    7.65655729119883    3.37431659807645
H        -0.84211172895349    8.21388435156510    2.64034631367410
H        -2.48085921740166    7.83561483024362    3.14612388932190
C        -1.13768365846114    6.16330916325541    3.24772053834899
H        -0.11682023727636    5.96371566758863    3.56493770793754
H        -1.79529299061107    5.61492747430155    3.92495891030904
C        -1.34577774375432    5.65901524968212    1.82196165905470
H        -0.67250006237238    6.18652462315084    1.14349394975050
H        -2.36621562753494    5.89337693972857    1.50855232363107
C        -1.14368447697567    4.14686011428698    1.69483694085570
H        -1.52363734876452    3.81320096629538    0.72546786905358
H        -1.73342537810315    3.67037787985813    2.48101538694975
C         1.91001204092044   -0.46193254993568    3.81087560171606
C         2.77745491433261   -1.31918663394356    3.12710057962257
C         3.62378726385752   -2.11921763197292    3.88427905596551
H         4.30249317412720   -2.79259384438634    3.38627837810043
C         3.62371070622799   -2.05486701185035    5.26304341101138
H         4.30495855846049   -2.67149684154116    5.83117845069679
C         2.74161361560884   -1.21878674202997    5.92077298809498
H         2.72806877712953   -1.20641102067209    6.99989109511635
C         1.86033373330495   -0.41069489625108    5.21049012027705
C         2.80133397015253   -1.41813939980111    1.62053400600459
H         2.24474504584488   -0.57520450425778    1.19760501001673
C         0.77979067370775    0.35976870875242    5.94432524799322
H         0.33281568622037    1.10974970459627    5.27863258596798
C         4.45671848211460    4.44499604496188    5.54313571405530
H         3.88100095999318    5.18548099760037    5.00183799454889
C         5.54348764903724    4.82356253943609    6.32151219758297
C         6.24976717514156    3.85825209791393    7.02522634171488
H         7.09637804517717    4.13066992214784    7.63545336628292
C         5.83207948630060    2.54180452597331    6.91333740156423
H         6.34845825203299    1.75517449038954    7.43981740153355
C         4.74574554165743    2.23957290215699    6.11016624038946
H         4.41227604549842    1.21278766636573    5.97995001832831
C         2.11570575825204   -2.71643325060345    1.18456652500655
H         2.13170908391760   -2.79932617072444    0.09998792666488
H         1.08148018165251   -2.73161023253344    1.51941070587267
H         2.63009820207254   -3.57700700934202    1.60559673647343
C         4.22388287030675   -1.34321092579267    1.06332861882498
H         4.18813230482451   -1.26771908943391   -0.02142275922669
H         4.79868998815045   -2.22835396691857    1.32091552869186
H         4.73027944270782   -0.46708110962089    1.45898025456313
C        -0.32132608955857   -0.62953383870697    6.34101610047311
H        -1.13056575608233   -0.10718357090176    6.84660715456820
H         0.07399509038577   -1.39040136931260    7.01051158480317
H        -0.72336781622868   -1.12567795359935    5.45964082721301
C         1.31181473025957    1.10656403080191    7.16906542943878
H         0.52123952048016    1.72469393307352    7.58902347951589
H         2.13592915541096    1.76451396280752    6.87931617721119
H         1.65713453791092    0.42407137856503    7.94173594619024

