86
CSD_code = OGOTOV | q = 0 | S = 0 | Stoichiometry = C32H46Cl3N3OPd | MND = 4
Pd        2.44576360553979    4.06410709643475    4.32389925555039
Cl        4.14494188067829    2.96617693223362    5.40797998669983
Cl        0.67847153706150    4.94947231693650    3.17461006839854
O         5.48549763180520    7.50608171278526    1.91628030541457
C         3.70293100439488    4.80253816957652    3.05685270074456
N         4.45465742921090    4.18099864073866    2.17060674601350
C         5.32057168122725    5.09612767124719    1.46826042467747
H         5.11244358601817    5.12659768600012    0.39439621778372
H         6.37737729161851    4.85724656992777    1.61316275993905
C         4.98302218647885    6.43327452515902    2.11601061130267
N         3.98867494138480    6.13803708878007    3.02392069728425
C         4.20122188874855    2.79600648892111    1.79831534292229
H         4.00111491664072    2.27630341900181    2.74205435993781
C         2.92605929335951    2.72865431385314    0.93035405018483
H         2.24971405598449    3.53650308115729    1.23050085671540
H         3.18767376618251    2.87411491137234   -0.12058578494377
C         2.18586449459335    1.40196697338501    1.10844380460241
H         1.45637990035209    1.28905035435800    0.30431976014513
H         2.89981776145363    0.58474019459817    1.01429072062350
C         1.46477542953500    1.32470298654151    2.45826670090412
H         0.52107779697601    1.87281592713232    2.38252057597330
H         2.06589313356551    1.83636608498313    3.23026561116043
C         1.16159957795278   -0.10621988976139    2.91509065820701
H         0.60587304843905   -0.06060113141579    3.85519784708368
H         0.50740266056207   -0.57529540102620    2.17498210635602
C         2.38547684520821   -1.01059232221895    3.10296166509151
H         2.90977154127736   -1.10212261901336    2.15157113308628
H         2.02831488171724   -2.01296720829536    3.35309742818465
C         3.36703105094038   -0.55518681834130    4.18651232688504
H         2.98285175883072   -0.85619171982946    5.16407829160248
H         3.45954515045518    0.52966170602721    4.19644529440433
C         4.76467323134354   -1.15510233823137    3.99773171711888
H         5.32870145180824   -1.04184462175410    4.92527708488896
H         4.66531974657752   -2.22526250290054    3.79871766754450
C         5.55505058375511   -0.49737306694550    2.86107094040846
H         4.89764223379542   -0.37811137071429    2.00116517394377
H         6.36588631773438   -1.16227018510977    2.55359131621100
C         6.14237042271153    0.85599424746555    3.26756813105378
H         7.03944013687222    0.68032946468055    3.86548931570992
H         5.44767463650071    1.38692278080191    3.91634177661632
C         6.53751107993105    1.76047446158119    2.09495881302742
H         6.96505558417537    2.67376002505241    2.51520122810040
H         7.32075187812506    1.26995550604203    1.51098289592328
C         5.40161481813566    2.12895144412493    1.13187212621228
H         5.04287055366414    1.22228212452745    0.64451478017424
H         5.79824687361563    2.76964533347811    0.34092483502724
C         3.15734103764611    7.09204834027300    3.69315161457883
C         3.21532022549207    7.18949932810317    5.08786032787460
C         2.33654480143831    8.06475046968203    5.71672168836844
H         2.35846695073500    8.16341724940314    6.79106772902603
C         1.44534371643450    8.82291550829140    4.98275861155253
H         0.76714591624699    9.49553140260895    5.48734598126652
C         1.42876438236657    8.73430189507326    3.60521365433920
H         0.73905527547079    9.34424651386604    3.04439151398487
C         2.27210050789013    7.86125452686075    2.93032736403792
C         4.28329952279669    6.48250323553522    5.89511349850398
H         4.74581016641069    5.69295259612857    5.29050265432036
C         2.22292013153562    7.79314163243381    1.42243102912928
H         2.78357558320390    6.91603358449424    1.08212633155147
C         5.37486793658336    7.49576777137472    6.25257094900089
H         6.17098971388824    7.00638086524919    6.80890242427020
H         4.96665183298768    8.29907690438207    6.86192899246425
H         5.79800000517159    7.93190979956126    5.34995483097870
C         3.71103560682918    5.82326299692852    7.15191408258939
H         4.47112887398160    5.19878968291821    7.61590916966078
H         2.86190913939877    5.18616649701702    6.88500870966198
H         3.38254558233821    6.56069873928516    7.88026716218534
C         2.88444524505756    9.04276750717695    0.83421849492582
H         2.84632981815093    9.00825710267311   -0.25242258570004
H         3.92507788589880    9.10298234889925    1.14404861018899
H         2.36961801261130    9.93932355399492    1.17089729502975
C         0.79194654520399    7.63675209040871    0.90489065888831
H         0.80904248683446    7.44005350441235   -0.16505010657474
H         0.20757506970143    8.53696347498208    1.07260479523715
H         0.30628069286326    6.80356155586403    1.40594657789363
N         1.12140233988110    3.40592799187720    5.71416718401855
C         0.99642346596794    2.12958406725740    6.05659212547110
H         1.69319904317538    1.42348478808155    5.62066507357377
C         0.03103917018626    1.70548985943674    6.96071187124334
C        -0.82290181866096    2.63545081434344    7.53755805349935
H        -1.57975036545029    2.32642903828252    8.24101315953344
C        -0.66666192523182    3.96489995270760    7.18078252212194
H        -1.30189311976100    4.72617717740710    7.60450894614682
C         0.31205327899270    4.31125926499622    6.26485111916312
H         0.44358004651160    5.34251261135793    5.94801505758222
Cl       -0.09234405778137    0.03345471299327    7.34926250361242

