61
CSD_code = OGOYOY | q = 0 | S = 0 | Stoichiometry = C30H25AuClNP2S | MND = 2
Au        9.13884269249086   -7.80311176079354    2.46823327699379
Cl       11.11873189151324   -8.73790273440819    1.90797832183226
P         7.16781686777504   -6.88190306824612    2.99727667375506
N         6.74091935176026   -6.78790497181169    4.62012097674171
H         6.96899424497408   -5.87710101384738    5.04697320474851
C         6.91917486453714   -7.84203024113436    5.51065846839396
C         6.75323654345781   -7.59946967372362    6.88233750961939
C         6.91991233128649   -8.63234666813050    7.79461990017303
H         6.79946890167734   -8.43569277802274    8.85074871660747
C         7.22353263882536   -9.90694007872906    7.35150906742664
H         7.35662673448689  -10.70585556497756    8.06441297513144
C         7.33864313847570  -10.15801171720818    5.99283217628904
H         7.55543655220639  -11.15570089431293    5.64375104029693
C         7.18411646413956   -9.13496160672432    5.07689641516732
H         7.27092395478455   -9.32322057106548    4.01372888149591
C         5.69882708484174   -7.62957696039870    2.23936969472412
C         5.80624297023238   -8.01066918282268    0.90586899336688
H         6.75072724776487   -7.87186217471497    0.39381478676868
C         4.71867908240390   -8.56294193499188    0.25671023582595
H         4.79929845368624   -8.85762468976754   -0.77877732156781
C         3.52643881403567   -8.74379776616650    0.94093274833504
H         2.67729390457748   -9.17937992060132    0.43580147250725
C         3.42288939874592   -8.37497600896666    2.27245362905009
H         2.49445047729374   -8.52300944471454    2.80448082484357
C         4.50603686218296   -7.81741814518299    2.92724455560022
H         4.42931938431603   -7.53438617250324    3.96775503501022
C         6.99629888435634   -5.12833066690443    2.58467479254192
C         8.07984831885127   -4.44993573929638    2.04322853435036
H         8.99966111669833   -4.98727185335368    1.84905226046526
C         7.97416266715554   -3.09779259341063    1.76864574450668
H         8.81696874060539   -2.56552788360152    1.35427471330702
C         6.79030963658316   -2.42993796196981    2.03321796296438
H         6.71064530441439   -1.37365462094303    1.82389040757784
C         5.70597813412645   -3.11083302338822    2.56666745135829
H         4.78415575520462   -2.58493451756228    2.76719462052308
C         5.80165541427219   -4.46109564153213    2.84048471391037
H         4.96107517173505   -5.00366493917321    3.25137222759091
P         6.24905678030339   -5.91366842268599    7.36105541912763
S         7.46134872609983   -4.49335112325930    6.79111162576632
C         4.58187271809154   -5.80759678291502    6.62370887824674
C         3.72300079588089   -6.90147644589712    6.66512228777966
H         4.03320146835539   -7.81062171173188    7.16270450551207
C         2.48151032067399   -6.81625023392318    6.06277400923528
H         1.81206136445810   -7.66349578646955    6.09149808440012
C         2.09823548492474   -5.64839717828769    5.41995661311046
H         1.12909822706287   -5.58891095218835    4.94737370644878
C         2.95463713389501   -4.56052440766602    5.38071565194539
H         2.65444795501202   -3.65258133208963    4.87911217087213
C         4.19932111103804   -4.63906942355906    5.98082168328141
H         4.88880456910440   -3.80554294650067    5.95048072112268
C         6.02059892964027   -5.95471257136315    9.16466854856255
C         7.17912382989174   -5.99165549026129    9.93575796194113
H         8.14163886753576   -6.02774765302001    9.44167376916439
C         7.08867595978702   -5.97267572885344   11.31405518702672
H         7.98589462191137   -6.00709360124767   11.91366711759483
C         5.84473371546586   -5.90232912977869   11.92291977602643
H         5.77338029235720   -5.88241980279371   13.00008178448864
C         4.69383343452944   -5.84805020930781   11.15425843207606
H         3.72720102870040   -5.78295779657397   11.63155043043805
C         4.77532966515458   -5.87206805487012    9.77258771393389
H         3.87835300365848   -5.82592802965722    9.17100823365955

