27
CSD_code = OGUBEX | q = 1 | S = 0 | Stoichiometry = C11H12CoO3(1+) | MND = 7
Co        3.44162506954699    2.85051907354606    6.31028803172439
C         1.70172251845837    2.11549934825246    5.61669432383929
C         1.63398339960025    2.12848032665394    7.07214416612770
C         1.24243423099569    1.12164712820500    8.08446760354973
H         0.15082297462367    1.10774649731213    8.14036405851490
H         1.62091686086317    1.37460034478622    9.07252177921369
H         1.57502645424698    0.12306262358615    7.81078595872539
C         1.30528328269747    1.10308602608170    4.60895615742405
H         1.69673795167183    0.11879199368234    4.85659631943950
H         1.63747478970510    1.38089370683175    3.61151852813184
H         0.21467179890129    1.03636499852992    4.59603890602566
C         4.27319876578993    1.45494503870588    7.13783551518253
O         4.80833410372848    0.59547158608776    7.63918161928294
C         4.26228228612637    2.85058573198219    4.68966557849577
O         4.78635833256000    2.84999921029741    3.68904856202736
C         1.70176168108361    3.58554784825822    5.61671935563941
C         1.63399534425717    3.57249529669905    7.07217793425760
C         4.27347332440863    4.24588694488401    7.13789441192006
O         4.80787180542524    5.10599533750295    7.63881721867294
C         1.30532167670709    4.59799464383192    4.60901535414120
H         1.69680123124580    5.58227208565508    4.85667665905689
H         1.63749356342163    4.32020503260039    3.61156641521359
H         0.21471084963562    4.66474200276097    4.59612002200655
C         1.24243417820681    4.57928920998656    8.08453028366975
H         0.15081982147462    4.59319503778952    8.14041269126519
H         1.62090752757656    4.32630241473099    9.07258123838271
H         1.57503617704172    5.57788051075950    7.81088130806938

