50
CSD_code = OGUBOH | q = 1 | S = 0 | Stoichiometry = C19H27CoN3(1+) | MND = 8
Co        0.75135838095237    1.58868975746856   10.39958740307735
N        -0.58968774208530    0.15085439418296    9.66269407212191
C         2.18409151118397    1.42211789152498   11.91960274348721
C         2.19377967150317    0.26387754202369   11.11893372641344
C         2.62779896171437    0.62730546361541    9.80396267591502
C         2.80596947625668    2.00459419777307    9.77471344813762
C         2.47865984551962    2.51874457982144   11.07054082583258
C        -1.75494125484321    0.71868325496710    8.96678155625157
C        -0.01817020326569   -0.87330116144527    8.77929947107532
C        -1.07421640363221   -0.48128628964669   10.90731551590128
C        -1.34685369890837    0.60376715274454   11.90813640036050
C        -2.32125689710848    0.47473550617074   12.88634634293500
C        -2.53234507972138    1.51034220015638   13.77863327665974
C        -1.78658694814551    2.66498998660582   13.67465260974956
C        -0.80943715332667    2.81776613128036   12.68850572209343
C        -0.58674030202275    1.76719316184601   11.81454899189758
C        -0.04462165986001    4.11994614916268   12.67917149434061
N        -0.90150464406056    5.23008891576018   13.04959209054267
C        -1.83623101418763    5.55660371149661   11.99666749100995
C        -0.14983504676455    6.39190776910408   13.47333239503175
N         0.01698925537040    2.92803094614999    9.50245373495657
C        -0.34560729561771    3.84652017180925    8.90734218730450
C        -0.80956076637297    4.96945996725659    8.16743869970857
H         2.04941020925948    1.45914338210047   12.98735391517336
H         2.11475991790260   -0.74642897047272   11.48954313484969
H         2.86988356340747   -0.05806796457717    9.00923515273589
H         3.19225908813756    2.58334235312402    8.95218907205478
H         2.65914783466633    3.53128000376103   11.39341482795982
H        -1.44210785441569    1.20509217488752    8.04508227603989
H        -2.46530451876766   -0.07489284072899    8.71423010918191
H        -2.25752173415916    1.44308694662918    9.60485547434492
H         0.36248983184821   -0.41095130724200    7.87012246649825
H         0.78961740857298   -1.40596731553351    9.27425834018165
H        -0.78608694319938   -1.60200789931762    8.49985311508859
H        -0.30187635760743   -1.15264574042411   11.29354382889708
H        -1.97179357962434   -1.07978685667075   10.71068078347832
H        -2.90278981248566   -0.43283144385402   12.94396180490385
H        -3.28089339572957    1.41655461166571   14.54934996113358
H        -1.94317946236717    3.49331892729367   14.34765087026627
H         0.42540296039891    4.27846988316697   11.69323822541513
H         0.75151816244109    4.04957631400951   13.42700862723680
H        -2.54398009729062    6.29646058245457   12.36502353999435
H        -1.33521110959318    5.96646607096815   11.10340621271065
H        -2.38402565704792    4.65949722292639   11.71114148960624
H        -0.84696208155901    7.16762173948032   13.78363672496960
H         0.47288328795008    6.12851941016226   14.32628289444802
H         0.49319983017282    6.79963964494136   12.67758497570027
H        -1.88369463598005    5.08662147974629    8.31185445033559
H        -0.30421840559103    5.87279647592880    8.50980757008027
H        -0.60307744191722    4.83066171574689    7.10613728191070

