42
CSD_code = OGULEH | q = -1 | S = 0 | Stoichiometry = C14H24Cl3Pd(1-) | MND = 7
Pd        0.43220054234567    7.17039591049420   -8.92413977377217
Cl       -0.23465805949163    7.83135560430458  -11.16689202710291
Cl       -0.91822418284759    5.21936169927935   -8.91717932333041
Cl        2.42182624599565    5.92946240590024   -9.60615619458233
C        -0.40028298709180    8.64572171424571   -7.78654864817622
C         0.38769992033786    7.74528119095489   -6.92452086180585
C         1.60897194020932    8.27332072186053   -7.50618257112215
C         0.86082238083125    9.12987685419495   -8.37266065463575
C        -1.79972660607621    9.20078362266137   -7.84113236229368
C        -1.88742131792793   10.23785199364433   -8.96790885129836
H        -2.91442184432905   10.58475547132631   -9.06888690536933
H        -1.58341423996793    9.77831587347046   -9.90737003518683
H        -1.25544058714583   11.09910339593154   -8.76419693409845
C        -2.80710745485997    8.08933792604094   -8.16375640560733
H        -2.85206235719751    7.34253920954813   -7.37871366760643
H        -2.50820400274836    7.59100815664618   -9.08836421444255
H        -3.80076820151879    8.51388470676256   -8.30085847956699
C        -2.13854567482683    9.87452982877671   -6.50266391990396
H        -2.12140965051596    9.15639744230832   -5.68681981083930
H        -3.13254076861595   10.31580688700641   -6.55113944860457
H        -1.42011762956785   10.66324825084391   -6.28072245767285
C         0.22748646133164    6.84463272065632   -5.72796039301258
C        -1.18410942600101    6.27030810119279   -5.59758665831748
H        -1.91530948093138    7.05068438257893   -5.39993289266088
H        -1.21628477786003    5.56212192831141   -4.77082144485011
H        -1.44471917040451    5.74439974786186   -6.51598322348692
C         0.57849320898103    7.65199191815394   -4.46574506176049
H        -0.10720105897515    8.48889079541862   -4.34243179345254
H         1.59032366323734    8.04779863952797   -4.52453837393323
H         0.50820943571183    7.01410592270650   -3.58646835815800
C         1.20125467588201    5.66626819072812   -5.89051161926530
H         1.03787617902872    4.93306691873141   -5.10253811066373
H         2.23661287099072    5.99223663758976   -5.84954938436578
H         1.02947651487733    5.18366332272188   -6.85602135333319
C         3.07152270192330    8.13549580333267   -7.27150072646857
H         3.29336971466316    8.01255135373166   -6.21169318498165
H         3.58952420014441    9.01953887409532   -7.64457340827388
H         3.45290687454565    7.26352869514123   -7.81719316058283
C         1.30163256652053   10.22685846450912   -9.27965967339127
H         0.76861951440509   10.18001371773008  -10.22959916228644
H         2.36803315128395   10.11996758797213   -9.48023207181008
H         1.12520671565491   11.20353741110659   -8.82084639792635

