65
CSD_code = OGUMIN | q = 0 | S = 0 | Stoichiometry = C31H22N4NiO6S | MND = 6
Ni        5.52781573329957    6.04781791808193   11.27373872055810
S         2.72857634819143    0.82331530347335   12.57581204924774
O         3.44920944425891    5.55257747295325   10.97606430714908
O         2.93446341856420    5.81994955907257    8.83088048639564
O         4.29428585084970    0.97228593783999   12.33625005905526
O         2.31660557526763    1.47964384393582   13.78260762150171
O         2.38689863027231   -0.56137335204972   12.42917719174109
O         4.44994094834842    7.81754004277745    9.86488129609821
N         6.11016562646275    5.58504534747026    9.61854381456918
N         7.01349222637531    7.60268773060001   11.12936246998284
N         4.91929870537207    6.40487937455741   12.95908690065831
N         5.99173274568371    4.18416040664903   12.05181086550343
C         5.68188663785904    4.56414179622841    8.90154309307065
H         5.04330002485288    3.84157885000995    9.39186316780729
C         6.02463218164299    4.38905751119083    7.55871104856543
H         5.62272373690555    3.54554855206464    7.02120118324287
C         6.85527259744622    5.29539274570736    6.94591074449744
H         7.12766933920598    5.19394901905607    5.90598496431063
C         7.36052469544762    6.36788172920554    7.69862460630860
C         8.25593777171374    7.34306133784714    7.17027759058204
H         8.55052221142974    7.25112489213071    6.13543294715392
C         8.72841657560533    8.35453899080445    7.93784113598768
H         9.40843238050537    9.08766487558914    7.52992683019421
C         8.34043099810240    8.48389640353169    9.30247758077786
C         8.80078628590910    9.50783978748159   10.14545128356193
H         9.48569520629202   10.25044171469131    9.76294191077882
C         8.36787458325957    9.54116286724053   11.44946673090089
H         8.70383003071618   10.30969146213468   12.12767427281963
C         7.47208764442472    8.56566662477232   11.89879434113714
H         7.12588384620094    8.57948536953691   12.92385424341517
C         6.95093700361373    6.47214535467973    9.04342370023593
C         7.44164176849597    7.54505807888818    9.85196781292425
C         4.45622137057880    7.55710391842661   13.40060686778645
H         4.63398056530217    8.43411462237758   12.79030956181707
C         3.75004410231139    7.66632275944749   14.60396936221363
H         3.38967516792975    8.63437262411310   14.91642863614414
C         4.00024341435979    5.29811353920095   14.91656379129919
C         3.82177702367275    4.07814880904992   15.59439276205940
H         3.29351210227651    4.07679548730056   16.53471481444263
C         4.27515550487524    2.90198335414426   15.04753910410770
H         4.09838731823520    1.97226653143215   15.56538586737149
C         4.94099124726120    2.86292242764527   13.81814924318609
C         5.35249044670409    1.58056513008545   13.17039291483881
H         5.59645685513883    0.81424623889209   13.91702648897064
C         6.46967463350578    1.84285196959549   12.21952759612638
H         7.07034504361084    1.00471606944893   11.90853683857431
C         6.64289710796193    3.05541604612756   11.65928656689974
H         7.40223654566702    3.19759104935097   10.89813467333484
C         4.70521286431719    5.28708489535020   13.68464792506415
C         5.21176365978068    4.06582874673118   13.15268863348052
C         2.91857588419874    5.18132313963356    9.89584184244167
C         2.30469571448020    3.79738924348962    9.95306613410072
C         2.53836174325681    3.05045481580878   11.10244290920078
H         3.02657183806191    3.50143615934858   11.95151111128951
C         2.17704436523448    1.72680703057312   11.14424851354976
C         1.54510328922523    1.11881677907514   10.07885745897282
H         1.29260729733974    0.07264652061267   10.14791809284110
C         1.26633508917432    1.87354486289191    8.94683523291486
H         0.76158125163780    1.41629655774251    8.10825996350199
C         1.66138670893115    3.20084564686766    8.87519227803306
H         1.49004832465954    3.78687519504672    7.98394707328915
C         3.51932431104235    6.54566208220779   15.36031435054036
H         2.96615702397057    6.60337113707961   16.28612018823314
H         3.80272148119584    8.22863691754816   10.44480880179701
H         3.90644993151366    7.17069214518806    9.33994943081401

