47
CSD_code = OGUMIM | q = 0 | S = 0 | Stoichiometry = C8H24B14Os | MND = 12
Os        6.29347093423506   12.44732387982505    5.21373551517975
C         5.87809972523645   14.41024522834291    4.42604969394903
C         8.25243020169201   12.99824098133397    5.72516484463873
C         7.20678879533682   14.68732237863781    3.80455102283771
B         5.91011618710757   14.62672654770686    6.00211705883800
B         7.34285988375781   13.79413380720150    6.79153878482926
B         8.48193831626061   13.78950947479856    4.37382345024643
B         6.59282398656199   15.89657539696463    4.90323812959550
B         8.83529022351533   14.53344370102828    6.06073015824126
B         8.30132754299191   15.56880016476973    4.78452197386403
B         7.40922485937108   15.53212370539754    6.39246725096461
C         4.68284911585547   14.45429515087626    3.49758614969553
C         6.78616928726604   10.40974330342351    4.71370706761856
C         4.28449200536435   11.94562099931786    5.55275651430056
C         5.53792435829877   10.05389595241786    3.97626469244190
B         6.56710552037047   10.37683007789726    6.28953737954148
B         5.05710342502347   11.28454960512937    6.80330783127759
B         4.21064833514807   11.00250198893828    4.28404909417697
B         6.01025384563177    8.98367209194401    5.27202802077941
B         3.65611671939772   10.45524069212829    5.99224232035875
B         4.32992705387877    9.28351585146788    4.91573466352683
B         5.02676469304375    9.51167284454383    6.60255255145106
C         8.08251465316012   10.26598225887171    3.94432714718533
H         8.90536161169578   12.18421631648731    6.02367034535712
H         7.19888895531387   14.89590027383238    2.73792264833855
H         4.90371684984962   14.77377544970362    6.58954264996590
H         7.27793221023994   13.39902322005313    7.89477795383454
H         9.29280202843609   13.45216215818057    3.58474747647058
H         6.06297311523853   16.85979287768109    4.49564412594410
H         9.87634288873457   14.59658872125777    6.60067866994142
H         8.98084025134911   16.38053278141503    4.27154653518370
H         4.70762270919264   15.35196820478715    2.87749702230690
H         3.74770210730913   14.46204238347668    4.05200991971631
H         4.66917933728661   13.59555188889035    2.82389022902448
H         3.60658461892419   12.78438915879129    5.67613968899483
H         5.66977678383509    9.72338510071858    2.94932351964548
H         7.49643353095657   10.30525124927367    7.00423073655195
H         4.99453171918033   11.80497968020665    7.85328306635251
H         3.50057949483050   11.24077708291494    3.37142525961464
H         6.57807358704229    7.98370328219536    5.04334999301707
H         2.55837640604329   10.44752665159034    6.40955920334045
H         3.71004391293077    8.41334057682441    4.42353018676340
H         4.86436345640060    8.79550291059028    7.52064537874155
H         7.46739944549444   16.35064951273090    7.23440910321818
H         8.12093548248862    9.30562391221933    3.42713244187525
H         8.94492677966418   10.32013959493698    4.60430107869736
H         8.18587304905722   11.04601092827887    3.18781145156766

