89
CSD_code = OGUNIP | q = 0 | S = 0 | Stoichiometry = C48H13F20N5O2Zn | MND = 5
Zn        2.29991159855747    3.69428272003947   15.61874999776062
F         2.75898495457295    0.92190645587135   20.11118067490975
F         2.37825242816742    0.20402583481937   22.71048677592585
F         0.64557224549947    1.62089851493093   24.26677431636904
F        -0.71049660717893    3.73709483364404   23.21400491292987
F        -0.31688449101865    4.44335261234794   20.61895054697315
F         5.36499872540031    7.51635274795173   18.33454489055499
F         7.67169940175707    8.39909721996555   19.46738735651781
F        10.00958386032644    7.08278095331236   18.99076026113653
F        10.02388376296394    4.87527806612798   17.38652014044096
F         7.70429956558324    3.98701369247395   16.28604382255680
F         4.75633015380475    3.46811298869140   10.79334664636996
F         5.21933490425606    4.17709387974591    8.21444039206631
F         3.94977025101830    6.34456583027984    7.14994280785030
F         2.22566086901874    7.79596986925719    8.68428038054067
F         1.77692024508298    7.07899796172200   11.26402376671341
F        -1.19881281483620   -0.06588867818714   14.60136657056828
F        -3.53149783830228   -1.21761291386063   13.81375650830283
F        -5.60892568337886    0.34828872863474   12.99142308078697
F        -5.33797644154732    3.05952795421758   12.96442757026458
F        -3.00793803140139    4.19783713306553   13.76643561050372
N         3.15317396921719    4.12694946751939   17.43653400160479
N         3.86213249246319    4.84290932340772   14.75028771149901
N         1.27610737377908    3.80179230364626   13.90886663170426
N         0.64724838651798    3.04744447716100   16.61767187410000
N         3.23189475767299    1.80925371206813   15.38684343836075
O         3.68393298476275    3.93210592471920   20.86037124206865
O         4.69104052584474    4.67962686131579   18.97065605999472
C         2.68390743466421    3.71598203332880   18.64864415301896
C         3.67465601825905    4.07901994451424   19.66819905635832
C         4.32634917023556    4.68453937068793   17.66059841600135
C         5.21367966952571    5.22065426211148   16.72334790033850
C         4.95938062086018    5.29097313034507   15.36581417188467
C         5.93476728519439    5.94647353375429   14.41825656886237
H         6.12712017292527    6.97685266857552   14.71935990764439
H         6.88559227990630    5.41441132005035   14.41084954857212
C         5.21733008141907    5.84517586363399   13.07636763541993
H         5.79419128001844    5.27385810343154   12.34956942459324
H         5.00120268814278    6.82277474915639   12.64312573836945
C         3.93457652619845    5.12676414867375   13.43271433073594
C         2.97705080649905    4.84901152799192   12.49076633849940
C         1.73135009698834    4.22465157943562   12.71783639899850
C         0.77671571043693    3.93412612729075   11.68623997915967
H         0.89119805877423    4.15511095729822   10.64308614164329
C        -0.27256338199094    3.32488403820993   12.28952547328255
H        -1.17000920272034    2.96164999402127   11.82846696769807
C         0.04205763357708    3.25351282740366   13.68803782578259
C        -0.77542578271363    2.69163008887075   14.65864501837333
C        -0.49658444973388    2.61232746093213   16.02835551653861
C        -1.38402803857181    2.07302000271607   17.01555532685084
H        -2.36267277766199    1.67475904491906   16.83115491603488
C        -0.74733507283698    2.18319148281844   18.20996686035588
H        -1.10370053578143    1.88343938776461   19.17571953030862
C         0.51603118589842    2.79755561183327   17.94086350839665
C         1.48770758950170    3.09211787977119   18.91126633242106
C         1.23351041742549    2.69928706793925   20.31847156581524
C         1.91240967948560    1.62026708612617   20.87579357608058
C         1.72406455777828    1.24780373965463   22.20029952833755
C         0.83724557307524    1.96941336959418   22.99550792374890
C         0.14545448077459    3.04972087187507   22.45684961507790
C         0.34899229780650    3.40348603700355   21.12656709638918
C         6.48641463604141    5.73803664164456   17.28246105781290
C         6.50150605915737    6.85721743033899   18.11088591339374
C         7.67957877080427    7.31795114629273   18.68996847356488
C         8.87582608973465    6.64821331615334   18.44560574110613
C         8.88296434822828    5.52370579426383   17.62471363631746
C         7.69250141806117    5.08169616773011   17.06070477085924
C         3.25170535923653    5.25479775053464   11.08580821281556
C         4.12859560913104    4.53386985243379   10.28175372101811
C         4.37269176228888    4.88911247043602    8.95950932042887
C         3.72513541393397    5.99456585693133    8.41470473276051
C         2.84372378895268    6.73351945285225    9.19951394832186
C         2.61682744517416    6.35741141297326   10.52002870538412
C        -2.05612467426625    2.09107855682088   14.20943338454310
C        -2.21939887037106    0.70845229616049   14.21219628516879
C        -3.40624212578951    0.11007881159668   13.80523558927864
C        -4.46650730475591    0.90838208413295   13.38344782683032
C        -4.32572419403268    2.29367855459256   13.36997367082938
C        -3.12667633270966    2.87020907752160   13.78001996377920
C         4.53843202950755    1.64323568435294   15.57193192615435
H         5.11213799965164    2.53811472334190   15.76353273969698
C         5.15724200713705    0.40612371795947   15.52615794918448
H         6.22091710443745    0.32948951233743   15.68484246603646
C         4.38468960170997   -0.71717445860615   15.27666185054527
H         4.83213798655478   -1.69870092615386   15.23779386447785
C         3.02369566469558   -0.54765508639694   15.07823675124559
H         2.37764452734167   -1.38773826948379   14.88000499520429
C         2.49427981152842    0.72965809947446   15.14251191627273
H         1.43740244665211    0.89506654316275   14.99426030599343

