94
CSD_code = OGUSEO | q = 1 | S = 0 | Stoichiometry = C46H44ClP2Ru(1+) | MND = 9
Ru        0.31236014325681    3.96693982807480    3.38360946846425
Cl       -1.49262318092675    2.44547623854334    3.60092455367179
P         1.58503797227616    2.03488617424322    3.24994922793354
P        -0.35220597037373    4.01906528151219    1.16722898931600
C         1.67555714719562    5.84463612418400    3.57486015970022
C         0.33467199628257    6.25997834843811    3.40373427936725
C        -0.67475885240089    5.88444289267633    4.31092645591611
C        -0.38184094770583    5.07617299470582    5.43238733700481
C         0.93330884754307    4.59878500524152    5.56678521153331
C         1.94003042708071    4.96836422967873    4.64532752366854
C         2.79522841979918    6.40758615290478    2.75328706033614
C        -1.37675665753059    4.85204901157162    6.54349485657340
C        -2.81678366931923    4.67119081917155    6.06691932039680
C        -1.26916614627701    6.04983299380148    7.49844931499026
C         3.36136959174527    2.41316525723586    3.06242396632611
C         3.94046547925128    2.55836098785905    1.80659737690158
C         5.27333076094854    2.90743508512775    1.67952393755650
C         6.04816633902660    3.11571103807710    2.80794054365313
C         5.48501132120896    2.96374447661850    4.06515724115373
C         4.15187886194674    2.62005855100530    4.19285169627127
C         1.58570549864054    1.04274151936212    4.77844967255333
C         2.57657992493425    0.07383455323774    4.94918057560694
C         2.59052453955117   -0.71444182138745    6.08315182767295
C         1.61824070513342   -0.54973298644385    7.05835068812022
C         0.63451506646137    0.40918391337246    6.89472554261710
C         0.61779138680846    1.20461171844969    5.76096126313245
C        -2.01140645155951    4.71086140443840    0.87506195656291
C        -2.94222570944813    4.84042862016216    1.89675424642735
C        -4.20335297563905    5.34836261467175    1.63293405310114
C        -4.54322624380891    5.73443290396490    0.34864647813061
C        -3.61826652981010    5.60908310804756   -0.67726767260973
C        -2.36076604484325    5.09932546111230   -0.42009461768903
C         0.69821962306150    5.14812885488281    0.19112075224925
C         0.34148364680955    6.48407916555136    0.01324388570262
C         1.16167719193846    7.34044898978503   -0.69920350870466
C         2.35362908613220    6.88009378776876   -1.23584112301769
C         2.72060918779344    5.55655708816792   -1.05728605052157
C         1.89982456096171    4.69944046841732   -0.34714494049643
C         1.33350957780738    0.71125576405804    1.97628044386343
C        -0.00692554295268    0.03066504462712    2.09009030531082
C         0.00526143349996   -1.05915754249239    2.93385080585926
C        -1.12552952328370   -1.82999655793335    3.20228470084511
C        -2.29667345313987   -1.50027122039749    2.59275781440009
C        -2.36728136282484   -0.40497826627568    1.70812407938418
C        -3.61931282159895   -0.13684566047387    1.11859704800765
C        -3.77352927745036    0.90123442780831    0.25234508704427
C        -2.66739099269899    1.70118097137391   -0.03303780581646
C        -1.42336902341213    1.49798105327797    0.52502877636192
C        -1.21868223256472    0.40710199112549    1.42859652689825
C        -0.40040039156681    2.51443080985737    0.08392315111337
H         0.10435570218832    6.98576473465846    2.63057801683973
H        -1.65899993195169    6.32327972025427    4.20628146815875
H         1.20832145739644    4.02689006380444    6.44668590282878
H         2.96924759139364    4.68944066429914    4.84483919773802
H         3.57366497153389    5.66341872280290    2.59238957810049
H         2.44228909455208    6.76325645790527    1.78870952757852
H         3.23932784344343    7.25114586480288    3.28466953981610
H        -1.08121526102646    3.94909754814169    7.09015092535497
H        -3.21460321088592    5.58906322230218    5.64002908288387
H        -2.87831326715427    3.87373700630845    5.32941171913018
H        -3.44317782481913    4.39980582524541    6.91246785155686
H        -0.25543636560324    6.15768643676679    7.87932188165576
H        -1.54729379701628    6.97051191443464    6.98927606711773
H        -1.94051462475222    5.90672579794594    8.34053113411604
H         3.35337056904693    2.38155849773424    0.91930264824400
H         5.70887976837017    3.01171597870443    0.69734174304858
H         7.08779659702205    3.38669046152040    2.70980001804995
H         6.08754607107751    3.11026115577089    4.94899137842949
H         3.72451155305737    2.48503886461791    5.17770218844798
H         3.34357831625868   -0.05609637405517    4.19684756642619
H         3.35996775796675   -1.46159195854280    6.20642612106844
H         1.63012220738021   -1.17025294913254    7.94113952862618
H        -0.12756760198664    0.53679054202172    7.64867448975023
H        -0.16781957636272    1.93465974747169    5.62818939355045
H        -2.68976965485019    4.51668783551657    2.89517247832817
H        -4.92212585934367    5.43672578605546    2.43352702972451
H        -5.52570199877336    6.13038554266592    0.14262569645971
H        -3.87946451692716    5.90771860577424   -1.68134703843570
H        -1.64367240443741    5.01171442873086   -1.22585322365348
H        -0.59468867730302    6.85042644645340    0.41182172801024
H         0.86745545275153    8.36985640215132   -0.83858355421268
H         2.99019873315137    7.54957730457758   -1.79295968252935
H         3.64555998913327    5.19067091706808   -1.47628769242337
H         2.19101682114657    3.66959876024051   -0.21632922664541
H         1.54625083846213    1.10631066003730    0.98858790043961
H         2.11600851332151   -0.02300614543074    2.20249499134004
H         0.93205803232817   -1.34086421615351    3.41247562232481
H        -1.05685173165060   -2.66682357875561    3.87931445748025
H        -3.19497735358027   -2.07093154361956    2.77286643726507
H        -4.45114504228224   -0.77675778311685    1.37074942877477
H        -4.72430802126024    1.11478312593545   -0.21008757121472
H        -2.80260776225632    2.51634649957248   -0.72900601162294
H        -0.69981865091390    2.90454280356280   -0.89614029406552
H         0.60373051818765    2.11961853416851   -0.02646092670886

