86
CSD_code = OGUWUJ | q = 0 | S = 0 | Stoichiometry = C40H35BN6O2SZn | MND = 4
Zn        4.07713409609641    1.89123994941483    4.28551399551158
S         5.08949904934677    2.82011738111825    6.14820679372854
N         2.15016365476731    1.31505743522995    4.26691067075074
N         4.69384295531121    0.20019252450374    3.37486820929183
N         3.95972204065106    2.84438297920215    2.50459807318338
N         1.75237657230843    0.90574485616459    3.05014539044531
N         3.92333623664541   -0.14823927616717    2.32968395799716
N         3.34422502025890    2.12117914619351    1.55357638892165
O        10.23446553810561    2.50755815687270    1.02127571326187
O         8.75968103089220    2.66095650964160    2.66002479805975
B         2.74298654960618    0.74109221731111    1.89054914365409
H         2.20574420009358    0.27947325738085    0.95021238077317
C         1.07439595676652    1.39404823161317    5.05231189392275
C        -0.05285987542987    1.02619961367550    4.31045610996419
H        -1.06552837846928    0.96959344179572    4.65317122293655
C         0.41989598162687    0.71885701394994    3.04797808596764
C        -0.35840919296434    0.26471853556630    1.86667331246989
H        -0.25913404221090    0.97265517654196    1.04597775976973
H        -1.40799254684548    0.18207463059065    2.13509145215610
H        -0.00495006776459   -0.70501794987256    1.52191319801615
C         1.14884199935131    1.79030193438389    6.45247880432311
C         2.23547137650841    1.41643894530211    7.23872948603382
H         3.01860633986496    0.80849421690964    6.80979318400597
C         2.30284518287397    1.80122167813695    8.56402665311160
H         3.15535353829717    1.51465993894943    9.16062191679478
C         1.28246593368790    2.55221030155747    9.12313062905149
H         1.33601436791893    2.85342584134601   10.15889045193773
C         0.18994585845848    2.91446748545380    8.35213913167488
H        -0.60907309268087    3.49762852541345    8.78663478590656
C         0.12075217695561    2.53662445917551    7.02470268146869
H        -0.72313864921423    2.83327652336655    6.41911629340072
C         5.75975608798509   -0.60123680235707    3.39388775672732
C         5.66491651212660   -1.50434882696873    2.33204610637014
H         6.35377911987302   -2.28501152239360    2.08287081513704
C         4.48462429149497   -1.18704754474161    1.68345466419336
C         3.89320102201252   -1.84297802003955    0.48874990840909
H         2.86874074703961   -2.15128734827139    0.68684170602721
H         4.48289962565729   -2.71717649064301    0.22703692758183
H         3.88363157983152   -1.16161997823983   -0.36023675370104
C         6.82747873763604   -0.42858694789641    4.37458380089532
C         8.15454048783974   -0.40264978372207    3.95251608129225
H         8.38481751733373   -0.54736013602456    2.90744905624016
C         9.16570597668878   -0.14904985523896    4.85970923604457
H        10.19140328164941   -0.11230703325659    4.52196790080797
C         8.86515755865870    0.07052675553147    6.19397144443530
H         9.65617758213198    0.28053177890028    6.89874175892753
C         7.55037270417907    0.01678675594647    6.62420061851352
H         7.31326936905725    0.18026605199410    7.66471880004351
C         6.53425052307866   -0.23281721943556    5.72077804575821
H         5.50825734440200   -0.28519028006988    6.05677739760658
C         4.54179904839170    3.89243139754588    1.91905037205938
C         4.28060139341379    3.84628562540624    0.54698011541508
H         4.59510156967533    4.55010857504948   -0.19581608214913
C         3.51512531548092    2.70976730882781    0.35589918055585
C         2.95879877611203    2.18272045994543   -0.91682958850753
H         3.42793994223579    1.23538412635887   -1.17723049612736
H         3.14565072794872    2.89479063390124   -1.71587565861651
H         1.88683445525847    2.01744543369039   -0.83111741157720
C         5.35298715043276    4.84327337071038    2.67226300730251
C         6.59310943020983    5.23598881180807    2.17374829990225
H         6.92836023775396    4.85686484091618    1.21970886392978
C         7.40683932812292    6.06988222576196    2.91652862430160
H         8.37521734765209    6.35577242345880    2.53166571612830
C         6.98843895298461    6.52734617077266    4.15531666410028
H         7.63073634029791    7.17016189316992    4.73909488144743
C         5.74500629398442    6.16295928134126    4.64299899118650
H         5.41308797008123    6.52268453977884    5.60536504717947
C         4.92767189991549    5.32558351401057    3.90661073216703
H         3.95378287089944    5.04632318846755    4.28429738661519
C         6.70490813522719    3.09878912379510    5.59433434346424
C         7.62521425830824    3.67814620901991    6.48352276360852
H         7.28849115827171    3.92969718749114    7.47693921173642
C         8.91536823335585    3.91828132288426    6.09750985703897
H         9.60371053575986    4.36529995374959    6.79756893830820
C         9.36169540483765    3.59414058719750    4.80614364100560
C         8.43378138466209    3.01233749957315    3.92501702381263
C         7.12791745790619    2.77121137380607    4.31669420350966
H         6.45713885866334    2.32277176510936    3.59945789787287
C        10.02140786573998    2.85138496614454    2.16152011653302
C        10.98902029349921    3.45118130676150    3.04910430457897
H        11.97325219142976    3.59328122382142    2.63078454700481
C        10.69423952889447    3.81510225286234    4.32095427563443
C        11.72425864931811    4.43559061356865    5.20900623954525
H        12.67203618923223    4.52922035842704    4.68580985345769
H        11.87276534213109    3.82550252063638    6.09870507309450
H        11.39994558241476    5.42491068042241    5.52840122473772

