110
CSD_code = OGUYEV | q = 1 | S = 0 | Stoichiometry = C58H46CuNOP3(1+) | MND = 4
Cu        4.66525721085445    8.50170210621897    2.82998264882626
P         4.47666955660219   10.79788394072127    2.87899591226831
O         4.69626313089285    5.90144261111733    1.41828381061858
N         4.24914446068118    8.49195412954622    4.84908206476210
P         6.54870683486330    7.81524738480880    1.72707037820474
P         2.68602724857491    7.64334030826383    1.95782960341585
C         4.20001697962779    7.38759259673882    5.55877390339491
C         3.76280960361417    7.38819694776463    6.90072893962766
H         3.74104206963580    6.45660676604585    7.44385578256222
C         3.37892343075005    8.56064123457970    7.48371836216757
H         3.04293143023533    8.59335217267062    8.50963268236362
C         3.04665528372649   11.00194910008345    7.27362580442527
H         2.70975167016439   11.04206763892242    8.29870528434356
C         3.11672605322749   12.13683962959626    6.51113827292549
H         2.83797167328996   13.09312339608306    6.92614389986719
C         3.54992627828227   12.06330181089758    5.18386749383242
H         3.59966805045425   12.96499019249168    4.58881228765654
C         3.90857483065531   10.86127555700405    4.61454084361339
C         3.86811798954496    9.67600940569133    5.38783326272147
C         3.42151062487233    9.75718048031764    6.73460263692729
C         5.87931020748533   11.95077343290426    3.03069790020770
C         7.02409763310155   11.39029055446819    3.59328186899839
H         7.00348811268544   10.34786514040187    3.89247148185495
C         8.16454997576304   12.14937319638094    3.75635463664739
H         9.04956385040459   11.71107109778459    4.19240412330964
C         8.16975207923889   13.47512413979720    3.35055462934174
H         9.06138343041769   14.07142621443738    3.46947035435437
C         7.03234898789790   14.03638665372531    2.79519360805210
H         7.03709009960371   15.07122875167000    2.48655214191301
C         5.88315463234189   13.28126447981876    2.63410653014448
H         4.99799174562892   13.72797574472681    2.20378536102831
C         3.17750012522743   11.70308660806440    1.99570068680789
C         3.48093037420776   12.19031825337653    0.72369196577740
H         4.49640611194382   12.11894990116956    0.35468647802772
C         2.49705430940940   12.77064565803526   -0.05217655539906
H         2.74001930119291   13.15822779712111   -1.03031735247284
C         1.19769390244868   12.85239406532409    0.42448870725598
H         0.42944081232697   13.30926844852950   -0.18033127999415
C         0.88508109285873   12.34121116841812    1.67285086968706
H        -0.12797193850828   12.39455243732652    2.04230679859593
C         1.86487318017410   11.75563215419591    2.45413754404093
H         1.60899334634361   11.34298279031144    3.42047980169848
C         7.57938260906240    6.62185212198320    2.63058176722531
C         7.78055191020245    6.87984786537306    3.98495902092169
H         7.31672704884980    7.75286231516304    4.42902896877564
C         8.56109524124992    6.03157484326372    4.74643328245701
H         8.72397931355368    6.23886033436036    5.79390264863002
C         9.13350569600448    4.91209703363474    4.16190924726735
H         9.74182299562371    4.24632318436571    4.75490325742175
C         8.92589764731003    4.64681715587241    2.81813972054604
H         9.37377066597201    3.77476671765495    2.36567973150258
C         8.15235527586695    5.49806358014800    2.04793510714317
H         7.99823696619901    5.29428587239797    0.99762539736618
C         7.73277042304379    9.12511602658564    1.28037066660125
C         9.06130551273023    9.14125324660273    1.68625301332878
H         9.46650950743209    8.31350562604450    2.25051254556118
C         9.86647341422461   10.21981366212138    1.36263071385195
H        10.90000579701399   10.22691354432332    1.67516478819835
C         9.35485887995470   11.28572048569928    0.64223061743843
H         9.98727442904142   12.12471624679718    0.39573600698115
C         8.02950266410470   11.27559653440014    0.23700890457253
H         7.62984259470970   12.10722005344934   -0.32438601090468
C         7.22150842546256   10.20428729148561    0.56133084536079
H         6.18401625251640   10.18542152940015    0.25167795559105
C         6.26861967414780    6.99030740791865    0.13195420148867
C         6.89433639067574    7.26928216995662   -1.07253028100510
H         7.67711700865519    8.01250723031425   -1.11279437822722
C         6.50924826969695    6.58957916341112   -2.21665214843152
H         7.00029240751252    6.79880233711550   -3.15412834025568
C         5.49582640407514    5.64799543884518   -2.16296920138486
H         5.19545150509169    5.12786798027980   -3.05923673931251
C         4.85240394320231    5.36335021048490   -0.96829255311444
H         4.04978624722409    4.64207758708605   -0.93187083612296
C         5.24625173345411    6.03395223107454    0.17420596230720
C         3.57732914802660    5.12619631515091    1.64944444889194
C         3.57928762693516    3.74416028126916    1.61790781537537
H         4.47111659208144    3.20864866050984    1.32877148735626
C         2.42117870877281    3.06819192072855    1.97377724786577
H         2.40683087011729    1.98972480866075    1.94747399505319
C         1.29062813371729    3.76461499245911    2.36926198387188
H         0.39916844950382    3.22467447020680    2.64943145704533
C         1.29135424701019    5.15007751618528    2.40412846049374
H         0.40871718406541    5.69342785852746    2.70968347371082
C         2.43465488270443    5.83880417973530    2.02828979668511
C         1.07300665420253    8.29749731135702    2.48055122460986
C         0.78860521065587    8.22335258922697    3.84371779805920
H         1.49091338493620    7.72928826470200    4.50442398823221
C        -0.37876816466287    8.76744248876174    4.34205564505746
H        -0.59788814518909    8.70387648736523    5.39787978252485
C        -1.26676874173113    9.39806224944137    3.48347939592063
H        -2.18012560977535    9.82290589486906    3.87141146633422
C        -0.98052240914649    9.48646307018944    2.13130341514802
H        -1.67207747504409    9.97837967154604    1.46367845837799
C         0.19082070347013    8.94863610918113    1.62720414032186
H         0.41826044603250    9.03326435859636    0.57406855737139
C         2.68199080128515    7.86263512092807    0.14963886697227
C         3.53304835673821    8.82389190714132   -0.38102947965012
H         4.12178105464937    9.42648500504724    0.30147631981555
C         3.62534381481748    9.00053343687926   -1.74828491992623
H         4.29297981817760    9.74502279451444   -2.15540591038465
C         2.86358079933824    8.21204672326550   -2.59426689961190
H         2.93647085879763    8.34091360340186   -3.66327727004810
C         2.00548345850018    7.25754981308802   -2.07080538990294
H         1.40800974989201    6.64862400494484   -2.73269946002285
C         1.91229227935057    7.07680898045465   -0.70313171349392
H         1.24559432821988    6.32884313515166   -0.29562572342641
C         4.60520756007153    6.10204904337267    4.92193145908296
H         4.96723179843159    6.27463251542239    3.91039002381801
H         3.75458471633139    5.42153755950791    4.88328835055631
H         5.38920627214530    5.62155373305420    5.50482965181668

