62
CSD_code = OGUYAQ | q = 0 | S = 0 | Stoichiometry = C28H27I2IrOP2S | MND = 6
Ir        3.61560512338763   12.62425179345510   13.61291295918307
I         3.69985968959997   15.04485375515724   14.76409596201641
I         4.14704439054373   11.14806914984936   15.95110716625523
P         6.68673993972472   10.95324999349783   13.35028445604857
P         3.77170603700347   10.47296907192640   12.71607247417931
S         6.05745691970095   12.76686433667841   12.90957009833646
O         0.71272577669392   12.73005097701781   14.35331338451843
C         1.81623790188511   12.65655560073348   14.05306028005569
C         3.25002319001417   13.54251517022617   11.71890388151600
H         3.80345955621097   14.48335250342898   11.72194852868972
H         3.71473430045930   12.89612116981371   10.96907664586581
C         1.81382160665509   13.81423558726481   11.32035621979730
H         1.80126697866394   14.27691187216902   10.33094325788105
H         1.32944211986197   14.50207148211469   12.01091446312516
H         1.22794101540820   12.89684762208868   11.26348818964281
C         5.39015684375133    9.65255941455056   13.12358562501196
H         5.25841200883591    9.09298332595518   14.05453090440397
H         5.68152605673830    8.97231563033158   12.31621040051822
C         8.02388053836967   10.48414349301936   12.20510520367165
C         8.51416245953255    9.18261164185250   12.20707044835189
H         8.09529644326788    8.44426402370203   12.87677520049996
C         9.54219237416772    8.83679383800945   11.35091093251041
H         9.92126199666127    7.82569248951352   11.34973804489946
C        10.08611032875224    9.78510042457461   10.49812481432862
H        10.88880281863715    9.50983139858350    9.83086232133816
C         9.60471461921399   11.08334450261537   10.50350373736748
H        10.02991749555149   11.82405951799626    9.84331373780993
C         8.57536566320261   11.43592177556399   11.35801286495431
H         8.19047625688828   12.44671396726339   11.36543009475062
C         7.46338992749752   10.78439820697887   14.98421958027114
C         7.89747730994938   11.95132394138169   15.60038418892414
H         7.71756937667151   12.90877861396323   15.12906402405187
C         8.52100924313755   11.88326758284046   16.83177156394109
H         8.84126852184489   12.79069020417945   17.31993708977573
C         8.71699772254511   10.65440544126955   17.43882222641293
H         9.19430727087287   10.60090855066587   18.40532884023727
C         8.29117229545550    9.49154764616774   16.81653809736886
H         8.43718421268774    8.53537034118158   17.29602692443147
C         7.66529546021614    9.54866077375804   15.58642264662810
H         7.31673044274030    8.63916491645726   15.11762550667564
C         3.77957089294557   10.38383444881596   10.89977297749976
C         4.94195699018634   10.53752866236426   10.15179126766486
H         5.90279159781118   10.64297058845840   10.64284787551929
C         4.87807530584529   10.57141483293487    8.77072154601198
H         5.78599472615211   10.68711550342804    8.19712428685670
C         3.65505648716578   10.46694889273399    8.12952066771938
H         3.60812902037943   10.49708779427065    7.05146468468855
C         2.49071251375107   10.33512546638155    8.87069265544899
H         1.53585050342877   10.26526525780679    8.37160100307591
C         2.54956242695961   10.30217781450721   10.25006748288329
H         1.64547385560189   10.20786143065055   10.83802898597597
C         2.63082894908073    9.11421416510364   13.11136212592925
C         2.81975504931796    7.88788865505873   12.47564987395134
H         3.61797384686965    7.76817723552513   11.75412486263289
C         1.97764710423487    6.82941152341924   12.75358307694753
H         2.12851440727837    5.88078479592999   12.25964698948430
C         0.94180424316241    6.98499767178515   13.66223164079770
H         0.28673205269220    6.15461788638862   13.87823534431763
C         0.74737173990963    8.20325043742357   14.28931347880728
H        -0.05761678618670    8.32952354138071   14.99670454612744
C         1.58853524702096    9.26772610669819   14.01457698952601
H         1.43933759318819   10.21290554104524   14.51397465176378

