65
CSD_code = OGUYIY | q = 0 | S = 0 | Stoichiometry = C29H28I2NO2P2Rh | MND = 6
Rh        6.10208716313891   10.77912526334728    6.73062937548777
N         6.55641461315962    8.93738645878897    6.42140837396222
I         8.69051453421260   11.35936517052100    6.83571753078073
I         3.53374195864657   10.19711362884685    6.47047296233080
P         5.50965093532495   12.97248099997233    6.74342533234424
P         5.86187777436582   12.29871904130301    3.73708830253361
O         6.16427881492719   10.95175329483109    4.26798607903167
O         5.90888947691111   11.72494415355259    9.29198669950224
C         4.07011631292620   13.70961058165831    7.60046703350707
C         3.32348259749945   13.05885798552709    8.57137332071327
H         3.56486771346765   12.05041704480780    8.86520670862904
C         2.26142264846917   13.70310946121574    9.18300311430434
H         1.68627133280160   13.18231451430878    9.93359929981407
C         1.93916306236345   15.00231889901376    8.83593394642074
H         1.10837610559469   15.50211267690377    9.31155282588049
C         2.69365446854761   15.66615040351939    7.88153380178127
H         2.45723980075116   16.68618319622032    7.61489226144060
C         3.75479361751876   15.02743000570383    7.27150100288829
H         4.35170013157315   15.56321203803576    6.54508754859841
C         6.73576310705177   14.24382237345111    7.17574237986485
C         7.64421777564597   14.73864222058504    6.24847979651917
H         7.63380209531548   14.37631697283982    5.23064505394974
C         8.58697244872074   15.67416349864348    6.63085592291488
H         9.28965032131820   16.05031776171907    5.90179230695104
C         8.63762891111186   16.11073895171998    7.94384611483270
H         9.37870025923215   16.83709912385737    8.24282093129982
C         7.74811549308795   15.60290651811944    8.87669994814713
H         7.79663710512726   15.92935009125006    9.90507735744568
C         6.80034724973558   14.67058443505402    8.49918101197917
H         6.11622381605507   14.25889030957656    9.22728005583357
C         7.33729029018292   13.16363431034718    3.13950619119861
C         7.27987211138172   14.47387129771556    2.67353319142026
H         6.33514090611002   15.00164253653310    2.65713508891224
C         8.43559743069542   15.09606986773730    2.24188829618232
H         8.39569328026267   16.11402431570125    1.88238354765535
C         9.64507689410479   14.41689834494795    2.27718420011582
H        10.54643576543585   14.91253618796787    1.94858565278341
C         9.70053056608588   13.11062021088275    2.73271904141932
H        10.64199110928168   12.58430923921677    2.76566288619194
C         8.54437847176988   12.48016683526185    3.15784259463077
H         8.56794443883838   11.46416731278864    3.52361316839168
C         4.69089098930595   12.20436872285234    2.34663147752853
C         4.98329401821844   12.68179239853577    1.07730319835027
H         5.92816257706785   13.16977922050130    0.88427856050355
C         4.06294129922409   12.52353224999135    0.05575627390161
H         4.29088852832350   12.89690270394065   -0.93199225876044
C         2.85761319034216   11.88478569219465    0.29614709888153
H         2.14403674364745   11.76300513222724   -0.50526688171718
C         2.57173595176623   11.39320459259713    1.55983304527184
H         1.63847743164489   10.88479375833027    1.74953885293773
C         3.48762013062459   11.55025336771002    2.58321660247344
H         3.27564050368819   11.15128145467902    3.56551737005823
C         5.03417322959602   13.38436261274617    4.98644758903605
H         3.95938551540412   13.17085214216524    4.91010424372196
H         5.20024725200492   14.43765121029980    4.75372154897324
C         6.33289343089069    9.36815596880787    9.37018101131033
H         7.33260677730907    9.00715439250093    9.12826272263953
H         5.60405945368885    8.63295834357210    9.02780484216838
H         6.24561562042503    9.49528468035493   10.44926404362338
C         6.09843251896546   10.69684199653632    8.70280798626205
C         6.80262422419922    7.98153571711394    5.83244880058267
C         7.11336455312250    6.77412311724952    5.13794655295101
H         6.88653103259275    5.91488694764171    5.76966603175156
H         8.17252912910072    6.76653519070892    4.87839045535612
H         6.51588299012774    6.72088085281148    4.22725057360751

