103
CSD_code = OGUYEW | q = 0 | S = 0 | Stoichiometry = C46H46MoN6O4 | MND = 6
Mo       -8.71068919287596    2.91287725725480   28.74284353389553
N        -7.46296944659786    4.18295040571415   27.87085832866089
C        -7.74771596712682    4.72004721419781   26.69359891586798
C        -8.96565615691424    4.22738452721424   26.17438404298604
N        -9.51903325818025    3.28851644886999   27.02921896811887
C       -10.73210368363560    2.72354347865679   26.67444280930605
C       -11.38080050313235    3.08395654574675   25.48916061883699
H       -12.32553735357983    2.62799572989222   25.23918092959212
C       -10.80709029562823    4.01723663135223   24.64545995954146
H       -11.30121313035265    4.29604466290534   23.72636687509943
C        -9.58953644899934    4.59374726582834   24.98549517508154
H        -9.12481573813591    5.32368430441917   24.34042200504037
C       -11.15980006313630    1.80372604864564   27.64272870436823
N       -10.32653454509108    1.73380493131982   28.68980272449907
C       -10.45098708040957    0.75175768790327   29.66725498971491
C       -10.56476104482226   -0.60459684208834   29.33848798262716
H       -10.60545431211968   -0.89503908392018   28.29952998389678
C       -10.57702220843621   -1.56718053056826   30.32374275623745
H       -10.64579025803355   -2.61407352976406   30.07251713021115
C       -10.49569314655694   -1.21225911555168   31.67029716745944
C       -10.41659787067148    0.13524488118807   32.00764264037595
H       -10.36619267351341    0.44955981825916   33.03823010772116
C       -10.39747183480838    1.09906993809257   31.01700023347460
H       -10.34767894927378    2.14435171956280   31.29505370704478
C        -6.34650497245363    4.46338026480096   28.65557852226826
C        -5.22667987690930    3.62627424145775   28.61231217687226
H        -5.18380535258459    2.83902490546928   27.87211098838306
C        -4.20078444625746    3.78845666938599   29.51530564309764
H        -3.34060059660729    3.13799280646598   29.50089867226571
C        -4.25921227079340    4.78740047684417   30.48798721960687
C        -5.34034511700034    5.66062309760492   30.49680347121259
H        -5.40203991617161    6.46263693285276   31.21544280319982
C        -6.36641744303613    5.50459785138976   29.58240451697128
H        -7.20993218684800    6.18121426880546   29.60393155363559
C        -6.87506605694728    5.73119734057476   26.01228175873066
H        -7.41786195108025    6.66328071571743   25.85422112552742
H        -6.54949583537773    5.36547349898761   25.03827197735743
H        -5.99668850335911    5.93421135717288   26.62219461719132
C       -12.45513284759503    1.05140732371619   27.54592342360431
H       -12.39002417016127    0.24325806671722   26.81610395696528
H       -13.24783062303145    1.72677542124120   27.22793141035833
H       -12.72366499425790    0.62528895866522   28.51004591086457
O       -10.50549066064315   -2.24596539917935   32.56313456756149
C       -10.40699073442891   -1.94590394210068   33.93287106659618
H        -9.47631992817876   -1.41698624518214   34.16345000896467
H       -10.41214370587225   -2.90631168918840   34.44631835166066
H       -11.25813650799814   -1.34879083318895   34.27706174937707
O        -3.21337008236761    4.82831849290581   31.36572244142671
C        -3.29883498841255    5.71039403502233   32.45650730510003
H        -3.27521686417020    6.75724530474137   32.13430782466946
H        -2.42296199513320    5.50706014370362   33.07104159370747
H        -4.20541878424733    5.53047236592782   33.04355412755719
N        -7.48617225918585    1.33412799950817   28.62833317737775
C        -6.68691795580371    1.04293207621331   29.66346379435235
C        -6.85847454977955    1.92418338560312   30.74096342535932
N        -7.85916012583660    2.84311172907204   30.47521540531129
C        -8.14334836279356    3.79159301906517   31.44379513865147
C        -7.46110241463575    3.82788520737339   32.65629863572679
H        -7.71350351548183    4.57845448640798   33.38968410363346
C        -6.45915915593775    2.89834547070539   32.90606832166566
H        -5.92191955534721    2.91860238839727   33.84283892980553
C        -6.15563815056194    1.94687238176950   31.94970342521871
H        -5.38081674685689    1.21859693756947   32.12909328684015
C        -9.16912060638796    4.65950662769060   31.00791376858394
N        -9.57269770761958    4.36516900720534   29.78067333654545
C       -10.56258171964954    5.02828816900108   29.05849857033240
C       -11.86954785799419    4.53043811408049   29.03513436244971
H       -12.13257360278616    3.70604705041449   29.68375373808880
C       -12.80485603805850    5.06911471864415   28.18114067700978
H       -13.81082410876988    4.68193603163921   28.14411928683752
C       -12.46691141692814    6.11766678072222   27.32467215519537
C       -11.18713405479532    6.65611166190706   27.38656778918548
H       -10.90183670677702    7.48645201464707   26.76001756477848
C       -10.25031216377950    6.12235587873092   28.25297603288512
H        -9.25307336285202    6.53971118589432   28.28601357385449
C        -7.62115610499561    0.48320526163261   27.53608394746285
C        -7.89604266389090   -0.88076735398881   27.69317142136935
H        -7.95647455458660   -1.29693745830343   28.68745491804586
C        -8.13588131970055   -1.67932030305765   26.59662379744805
H        -8.36662387722828   -2.72642658693810   26.71562608501977
C        -8.09206623166700   -1.15257667901291   25.30572891861020
C        -7.78445592516339    0.19398959920074   25.13837928171601
H        -7.72669476428265    0.63438394096568   24.15543714154726
C        -7.55041985544905    0.99479601558697   26.24040913559637
H        -7.30018762825454    2.03802778879108   26.09410886375736
C        -5.65588576238811   -0.04796918843847   29.65084330492258
H        -5.95778782030493   -0.88450834209135   30.28256167391787
H        -4.71132836568943    0.33619742655687   30.03278576940821
H        -5.50069494813950   -0.41714414396172   28.63950913789894
C        -9.73757492815710    5.78584852451890   31.81803555561474
H       -10.54035129020675    6.27138207241957   31.26613714920265
H        -8.96778253898423    6.52479016928163   32.04217485846721
H       -10.13314082136763    5.41853968929448   32.76490000756881
O       -13.45484627624085    6.54333028253515   26.48280721676718
C       -13.12176100387001    7.48559637245325   25.49468056376555
H       -12.85611779146092    8.45455167895639   25.93142273657157
H       -14.01602245453423    7.60323434384827   24.88428905580640
H       -12.29708330407790    7.13019062075935   24.86819229510060
O        -8.35785450593784   -2.02906687304344   24.29239773491292
C        -8.34756853105479   -1.54617589349873   22.97226098277354
H        -9.08894449275412   -0.75338643135590   22.82761725445282
H        -8.60431381214829   -2.39826572230661   22.34452112269644
H        -7.35803971487975   -1.17359795954359   22.68686249546425

