103
CSD_code = OGUYOG | q = 0 | S = 0 | Stoichiometry = C46H46CrN6O4 | MND = 6
Cr       22.87684496416258    2.85677790113243   45.86083672142448
N        24.16203912103300    4.07761983161524   45.07923078915340
C        23.90824073317605    4.59493616807686   43.89818676617902
C        22.68880097535739    4.11021459438690   43.35584461799950
C        22.08820175401945    4.46752748572807   42.15159222283319
H        22.56553574092096    5.18554366183162   41.50260748343473
C        20.87355923831339    3.89162119965596   41.80369702350740
H        20.39263704038977    4.15747656182413   40.87390428340836
C        20.28421534322245    2.97511147134719   42.65704163294768
H        19.34064346817362    2.51884393686509   42.40368531460113
C        20.92275235858922    2.63927650746047   43.85340962491481
N        22.12067085967465    3.19870667529646   44.20678870677673
C        20.48541526355959    1.73611317293898   44.84800137699417
N        21.30269342871969    1.68669149538548   45.88917786522266
C        21.15002500747674    0.73306767251086   46.88818116783256
C        21.04519129344904   -0.63057965608644   46.58971953450663
H        21.02900165345828   -0.94431256489495   45.55706555974117
C        21.01055055422617   -1.57080235163560   47.59535176182301
H        20.94887963328353   -2.62355876698142   47.36728278318208
C        21.05730567090829   -1.18447547619325   48.93483296974837
C        21.12747991300905    0.17008636343059   49.24168117072448
H        21.15237109697426    0.50838912531103   50.26569446938910
C        21.17156960784238    1.11032270626001   48.22948729066098
H        21.22270322612026    2.15895816464117   48.48136156503815
O        21.02629680724584   -2.19801617525815   49.85121187472821
C        21.09437459233372   -1.86619294782800   51.21513797290912
H        22.01921724799380   -1.33055270343851   51.45373740253783
H        21.07897845953160   -2.81434350185641   51.75076310251335
H        20.23534927717089   -1.26244734566804   51.52679780728436
C        25.28975304655375    4.37600247499494   45.84051475285969
C        25.27218447442636    5.42029009990241   46.76075443920898
H        24.41529416683790    6.07747704649917   46.79859534376600
C        26.31752111038731    5.60523591762253   47.64794579863927
H        26.25886339108465    6.41385284871225   48.35951764555897
C        27.41423469497474    4.75304480777231   47.61891780351303
C        27.46188691015879    3.74047160879079   46.66062051954799
H        28.33099731485894    3.10219163286867   46.63377449491692
C        26.41763200673206    3.55370186740145   45.78324768793721
H        26.45188160114809    2.75646272122551   45.05546366148864
O        28.48560455949347    4.82569007595584   48.46452018097271
C        28.43839501816394    5.75565281094898   49.51679030627692
H        28.43032562256268    6.78660902953819   49.14630804898447
H        29.34545264850991    5.59237777995803   50.09705533290023
H        27.56416049319865    5.59232259334246   50.15564944696793
C        24.79608445499441    5.58526045721776   43.20449025800146
H        24.25450383477595    6.51019615275822   43.00699174709811
H        25.13787103200395    5.18834924507078   42.24858439454747
H        25.66360311896562    5.80869236471898   43.82213229889013
C        19.18641323626786    0.99141904150569   44.73995762562307
H        19.25421480433920    0.19353322771108   43.99993210207329
H        18.40018706352519    1.67567758942886   44.42463888518333
H        18.91038241044249    0.55486837819464   45.69685657996227
N        24.04411452493471    1.29255060664941   45.65498830295602
C        24.81617708935273    0.96749830988770   46.68089470702805
C        24.64262778686201    1.82713571304652   47.78883006311451
C        25.32753940120842    1.80836770513591   49.00636590052917
H        26.08860622283209    1.06565711207644   49.18484603840916
C        25.01919844684692    2.74587028707572   49.97663433022169
H        25.53997370648186    2.74178751029511   50.92273758166957
C        24.03454608095541    3.69206563116044   49.72521917132875
H        23.77789231625546    4.43309144525010   50.46655514044121
C        23.37646994274085    3.67761062141675   48.49834869197512
N        23.66924382682271    2.75349188827449   47.52978952685495
C        22.35542297105623    4.55507088289228   48.04729146387483
N        21.98236730978599    4.28526838696649   46.81649368035597
C        20.98007270745383    4.96847407348188   46.13172616337393
C        19.66572423959137    4.49545621269369   46.15243214576223
H        19.41312173258406    3.66990188791527   46.80142984222150
C        18.70977515721701    5.05570778435663   45.33541202030624
H        17.69569397819665    4.68806707659102   45.33374933294233
C        19.03499403083017    6.10429516268980   44.47503756120618
C        20.32770521337099    6.61307303432165   44.48782191021552
H        20.60715868528662    7.43988752311328   43.85391752030782
C        21.28483537654816    6.05397913015291   45.31547296523345
H        22.29219116224398    6.44468764273008   45.30912195246093
O        18.02231072989084    6.55820911676097   43.67717300676552
C        18.32734050398414    7.52590096669357   42.70504323610227
H        18.63155859761504    8.47517034547112   43.15943516572504
H        17.40826315687764    7.67901190252929   42.14112947036448
H        19.11514624279985    7.17777080000268   42.02881764929817
C        23.93741411743819    0.47425319040433   44.53693568985431
C        23.63624667387700   -0.88813973525626   44.64985369051185
H        23.53644302763952   -1.32674449274717   45.63101847329379
C        23.42149212463163   -1.65699658874899   43.52759239905672
H        23.17093435268745   -2.70299564418879   43.61261460976093
C        23.51990116124779   -1.10082607568445   42.25222610039214
C        23.85223516704763    0.24392779505178   42.12926233893529
H        23.95064501612310    0.70678295387522   41.15985125305531
C        24.05841271059203    1.01447633918265   43.25804315336362
H        24.31994603571937    2.05624731347464   43.14892933816175
O        23.27755794821475   -1.94981766702496   41.20890914660775
C        23.34117356814203   -1.43601723321146   39.90238932701570
H        22.61629863593210   -0.62928944975919   39.75102613882358
H        23.09526372608336   -2.26901995295040   39.24531257118696
H        24.34513639839698   -1.07095346343233   39.66083769147770
C        25.83720022489108   -0.13307511674205   46.67215239279776
H        25.51905809604171   -0.96537578876388   47.30060685798500
H        26.78069659299008    0.24250784035947   47.06518162039487
H        25.99857482373633   -0.50270367542751   45.66228002275519
C        21.77753665768527    5.66203249412561   48.87845192509400
H        21.00204882628356    6.18400188441911   48.32150751378666
H        22.55415964532887    6.37488549079959   49.15561639661693
H        21.34536198387173    5.26569784462320   49.79711659108660

