127
CSD_code = OHABII | q = 0 | S = 0 | Stoichiometry = C56H58Cl2N4O4P2Ru | MND = 6
Ru        1.49077942272954   -0.01135236072457    3.73621625822098
Cl        0.84918166946824    0.48170528296954    5.99031826665635
Cl        1.40526082252004   -0.33643648354240    1.36479511847827
P         2.69432063984710   -1.90036151377591    4.19355720858660
P         3.39491510886745    1.25128393126778    3.77770733907019
O         5.81633258768192   -3.18013507013501    0.24521380908748
O         7.55638637908676   -0.47098655027867    3.50939646428153
O         6.86106412678824   -1.85083548114178    5.90365429406402
O         5.32448969338078    1.53228281268539    8.58996163620122
N        -0.41557825908491   -1.03357871177015    3.66932266145318
H        -0.42604372827303   -1.49622985327464    2.75468822339098
H        -0.54020745915908   -1.74986592457483    4.38705798734783
N         0.18353200196785    1.65610592971962    3.29337636167775
H         0.09480240993471    2.15655236981409    4.18329244782451
H         0.55275807384155    2.30857205679488    2.59929330574623
N         6.68001530293836   -1.83079319769421    1.88838444302488
N         6.09178900335038   -0.15362242146820    7.23508199747581
C         4.25792861580596   -1.92547739846584    3.24491165699163
C         4.43013398219814   -2.62301754810445    2.05938678317490
H         3.65647410176343   -3.23713433014642    1.63219677804560
C         5.65629621405411   -2.52405610038802    1.40856139938018
C         6.51899632434541   -1.17346780718104    3.02504996859132
C         5.31354224778485   -1.15080404010839    3.74066654026987
C         5.24799127035852   -0.39179698630607    5.00079017883535
C         4.46484615682171    0.75569967680209    5.17557971973264
C         4.49583478229810    1.41615989018188    6.39392423142970
H         3.91915821587527    2.30429714976488    6.58542212862352
C         5.31209878045616    0.90651676661227    7.39944359330137
C         6.07060060949953   -0.77732271612848    6.06862476363247
C         7.06609773416876   -3.01786841072027   -0.39218616716502
H         7.00512611473256   -3.58218256882570   -1.32061299559397
H         7.87479613819119   -3.40215208472448    0.23402126315914
H         7.25763084289783   -1.96240509348531   -0.59932390993032
C         8.76155541123478   -0.56203195056486    2.77946879937740
H         9.47405783962770    0.07553495233719    3.29918496156596
H         8.61742350617976   -0.21731989733884    1.75367590342333
H         9.12211370551461   -1.59327311153403    2.75793621782180
C         6.14246608437822    0.95547905541944    9.58638785645945
H         6.00331062604816    1.56359924701918   10.47800867405554
H         7.19143648473444    0.96329255518587    9.28072382547617
H         5.84353520918489   -0.07755227122754    9.77887804481607
C         7.70316332363177   -2.17333623304844    6.99010052482434
H         8.24299691849577   -3.07034309434340    6.69309060279219
H         7.11508822604644   -2.36143420677385    7.89039569123990
H         8.40364390467068   -1.35885640113930    7.18985023142777
C         3.38942004579910   -2.43186822692304    5.79886246052951
C         4.26718220849888   -3.51500488530870    5.80505290956989
H         4.52379052154673   -4.00003084026532    4.87256493375116
C         4.80708159276041   -3.96663363582719    6.99140948860586
H         5.48666399089449   -4.80772037865675    6.98207490269580
C         4.49736402339368   -3.34683947248846    8.19748090085978
C         3.62059752434765   -2.26984585618699    8.18425012834798
H         3.36738652266165   -1.77606609591631    9.11214592814254
C         3.06546675572698   -1.81840678890906    7.00140818155427
H         2.38796432564581   -0.97938930757926    7.01347810651275
C         5.07709652840857   -3.83990263951382    9.48981352386551
H         5.93236397550552   -4.48857851814242    9.31380458618759
H         4.32697074741160   -4.40755347949712   10.04166056337935
H         5.38791497261936   -3.00640590722813   10.11777235059060
C         1.80315424153090   -3.41864177567500    3.70062087312277
C         1.47089093833487   -4.41294171183415    4.61723640785336
H         1.80025743901607   -4.33605009751081    5.64329187106069
C         0.71558159984588   -5.50328699785199    4.22571910228377
H         0.47196779380653   -6.26715757440640    4.95113348530898
C         0.26223281289735   -5.63199786094677    2.91893951397286
C         0.56688397206121   -4.62146430806165    2.01377592351372
H         0.20807954285704   -4.69158075743131    0.99627804789155
C         1.31461030026852   -3.52524465126764    2.39745743190074
H         1.50600951295572   -2.73117151591302    1.68828102923505
C        -0.52727612748310   -6.83084494875973    2.49198423407168
H        -1.23927937042723   -6.56933193489014    1.71225459111292
H        -1.06427511714586   -7.26377686206648    3.33287256008421
H         0.14370580819185   -7.59192086040871    2.09191040601806
C         4.69989591021726    1.35479362915399    2.50235759287575
C         5.87923622932459    2.02538939288264    2.82252418757176
H         6.00022912680202    2.45195498490638    3.80949943511179
C         6.88742484289096    2.14430243421622    1.88815437135859
H         7.79704507383975    2.66767427173301    2.14911068438300
C         5.57362702202528    0.92632773761148    0.30651567037855
H         5.45084457444211    0.49079932976164   -0.67538670951338
C         4.55364440977918    0.81300902565416    1.23231627085629
H         3.64627867556192    0.29227995775440    0.96994707718378
C         6.75259766112881    1.59088081341653    0.61940462344697
C         7.84404632838680    1.71987207298545   -0.40108912314940
H         8.03968455129364    0.76162976533423   -0.88042882087453
H         8.76422319472437    2.08174610040114    0.05200465645466
H         7.54624248531914    2.42291606418561   -1.17950847047078
C         3.03801763501679    3.02587630010808    4.03397557001504
C         2.24142076636134    3.41062903017974    5.11403227833768
H         1.89158298479365    2.66312488164363    5.81341972699981
C         1.87758429089791    4.73201640938086    5.28447745647304
H         1.27115405214703    5.01258874232750    6.13450699423313
C         2.27477805235334    5.70675256605208    4.37546504517367
C         3.03569875860055    5.31498097312447    3.28172575012934
H         3.34046149693168    6.05336760025977    2.55305951009538
C         3.41024738198952    3.99511765934953    3.10612003745465
H         3.99492503992048    3.72014513982995    2.24033794159569
C         1.85755840731627    7.13395875566081    4.55560802575464
H         1.86242317249978    7.40745501962425    5.60854475837100
H         0.84438336045493    7.27659361140483    4.17729754942266
H         2.51908201416369    7.80437592811467    4.01230288873862
C        -1.50305516493563   -0.05476478798286    3.74820718861596
H        -1.56635973753462    0.28387310358829    4.79098376670077
C        -1.12794136449808    1.16218761736131    2.86530421566562
H        -1.02842132374504    0.81631674698184    1.82776258842543
C        -2.83891877776232   -0.60297065430294    3.30516403599469
C        -2.96084685527272   -1.28444568792362    2.09983345815901
H        -2.09428318000934   -1.44957248228617    1.47402812561191
C        -4.19484735214391   -1.74633317164396    1.67961146337456
H        -4.27810383857624   -2.27483342229335    0.74139692538859
C        -5.32075091669646   -1.52620347153498    2.45444539630379
H        -6.28416264014048   -1.88430364045351    2.12345947981744
C        -5.20744688614150   -0.84303781252735    3.65287560147306
H        -6.08245643976812   -0.66553898971015    4.26020063927238
C        -3.97263804727089   -0.38518814368588    4.07596070098096
H        -3.88631280613416    0.15070792956804    5.01012343544974
C        -2.21962994511220    2.20210697727443    2.95780806979774
C        -3.09332169073536    2.39438331356811    1.89648650775514
H        -2.96641689697319    1.81843919720863    0.99121538566373
C        -4.12519923992699    3.31048465668071    1.99419950021611
H        -4.80005317076039    3.44930872757105    1.16275529002581
C        -4.29239276154759    4.04618319171999    3.15461461009122
H        -5.09766015401719    4.76141847598667    3.23184685781289
C        -3.42556216752274    3.85943978926066    4.21777348607095
H        -3.55402196070021    4.42734209141023    5.12743266679459
C        -2.39688483609133    2.94000789120600    4.12246574986367
H        -1.74019759424534    2.79314038999336    4.96924034580111

