74
CSD_code = OHABUV | q = 1 | S = 0 | Stoichiometry = C33H33N5OPPt(1+) | MND = 4
Pt       -1.73700944221118    0.60652206941704   13.81021506273594
P        -2.81343037706004    1.56698113670092   15.56053857133748
O        -0.43948233315921    3.10405529328917   13.35455499414849
N        -1.31704776170961    5.02866725403919   12.47108098050643
H        -0.48915347407845    5.52961730981188   12.77435454454343
C        -2.31306046294878    5.70224429389241   11.83804249263240
H        -2.16050100156016    6.75896026154237   11.67573925368464
N        -3.41596799608261    5.18633552775253   11.41952897313185
C        -3.52996615098025    3.85950494179241   11.66049546534570
C        -2.56412331204155    3.08130030039763   12.28889445709510
C        -1.34595054669219    3.65993287307385   12.76876570075494
N        -3.00684700849298    1.79680992580339   12.38328448606089
C        -4.19766080157365    1.79992769111779   11.83587742574344
H        -4.83023180178307    0.93857116666270   11.74440193187757
N        -4.56202562987584    3.02423462990981   11.37621477411162
C        -5.79972805202833    3.39121532887554   10.74471595913933
H        -5.96784370150400    2.78390358533140    9.85513053236368
H        -5.73509926592355    4.44046742398630   10.46424135774348
H        -6.63028750870076    3.25034951209571   11.43720326132883
N        -0.63528004390956   -0.36473255774961   12.28216359962555
C        -0.77257371676335   -0.74686707698677   14.95154940213755
C        -0.58131166579790   -0.77192475894774   16.32524877302720
H        -0.95443999480141    0.02993657256001   16.94945997265362
C         0.09028815086227   -1.82363953082648   16.93063622087444
H         0.22546129161523   -1.82247997916100   18.00158214365716
C         0.58374102488486   -2.86847105939671   16.17095775214331
H         1.10714576162230   -3.68543986382909   16.64266443792154
C         0.40448396196848   -2.86116697400901   14.79879660051157
H         0.78622247383845   -3.67227316334470   14.19564961379455
C        -0.27224043827796   -1.81360550061007   14.19422294582299
C        -0.51438213412364   -1.77240437932437   12.70821684020394
H         0.28820386326294   -2.27522664335653   12.15115821000365
H        -1.45572553027514   -2.28717301375014   12.48170560274201
C         0.69665397582360    0.25102752321201   12.27942317878683
H         1.32756859743382   -0.19793225944404   11.50323172061002
H         1.17389346077428    0.10419679171213   13.24839344348534
H         0.61571210111814    1.32175231953694   12.09490134065655
C        -1.19334490400656   -0.30060346758530   10.93370800344709
H        -0.57746439304231   -0.87492479844167   10.23091033498760
H        -1.22696370226690    0.73339111090099   10.58962988703895
H        -2.20445668521647   -0.70979117894888   10.92302929286499
C        -4.19607081726189    2.66765530068637   15.10070177773791
C        -5.45917213050398    2.14310704203700   14.84234219663818
H        -5.64029486851440    1.08871422534240   14.99826282337462
C        -6.48075275358658    2.96944094174238   14.40879346669773
H        -7.46294455360874    2.55772108949819   14.22825887279886
C        -6.24933601997148    4.32266774165173   14.21746819394148
H        -7.04765588662740    4.96832874010017   13.88470646696011
C        -4.99206666028526    4.85012678020636   14.46474202410860
H        -4.81082651798404    5.90460657569438   14.31935416160908
C        -3.96901606656898    4.02708630978510   14.89933536023150
H        -2.98846909389618    4.43860366607323   15.09947108059789
C        -3.62779287134333    0.30271403207305   16.58297894281345
C        -4.00440238452766   -0.85988567084308   15.91457996224256
H        -3.76754434379630   -0.95473468546936   14.85705897874512
C        -4.64231610423755   -1.87920723144144   16.59411780423569
H        -4.93148643886322   -2.78011424612104   16.07443387056249
C        -4.89961772899308   -1.74607503188335   17.94990405198488
H        -5.39212203506379   -2.54271312142139   18.48590235004221
C        -4.51358622057782   -0.59757679724564   18.62052771543943
H        -4.70386068797997   -0.50125896624220   19.67867705496641
C        -3.87847771619045    0.42912257390858   17.94251383868210
H        -3.56555047688385    1.31343230574696   18.47692979804561
C        -1.81420053608209    2.62323460389627   16.64250414054762
C        -0.43333462803395    2.61849296052893   16.47155195178135
H        -0.00340843900735    2.00535079260256   15.68886449263224
C         0.36500244885077    3.40345095651993   17.28401702532046
H         1.43605304323754    3.39893817988529   17.15148584399932
C        -0.21042190324804    4.19395790208814   18.26604956377895
H         0.41233938696535    4.80185990240813   18.90453027904066
C        -1.58772157798186    4.21606662183318   18.42458453696088
H        -2.03528413218347    4.84370671493665   19.18055024955362
C        -2.39347474406674    3.43846569979116   17.61276148069052
H        -3.46946136776217    3.47846545366371   17.71792010206629

