56
CSD_code = OHAPAO | q = 0 | S = 0 | Stoichiometry = C17H34MoNP3 | MND = 10
Mo        2.78914119750922    3.02347864069133   10.65436177085995
P         3.28532167548796    2.95996958102385    8.34478641843287
P         5.00369540237054    3.96610711594681   10.94805805392827
P         1.97994906176311    5.21134418389380   11.13961712220351
H         1.50201125560029    3.30060022028657    9.78232976660980
C         4.78448900557959    2.10137566425462    7.73329065159657
H         4.78198158733655    1.09341858529189    8.14778317980486
H         5.68300316399606    2.61472096524979    8.06566538067053
H         4.77586678217155    2.04788531090671    6.64444298093830
C         2.02940744007262    2.00785025004529    7.41827356317290
H         2.27571904453510    1.96720229957592    6.35679294220144
H         1.06653811839895    2.49602711412159    7.55690312838051
H         1.97019997215764    0.99732149914304    7.81563139261236
C         3.26604300361110    4.45935785487015    7.28815876202066
H         4.05978870873833    5.14377276235430    7.57445897424991
H         2.30375312455980    4.94393358556729    7.45428139007895
H         3.37015102727299    4.18905341100285    6.23667066064693
C         6.40233013156405    2.80076778166016   11.09783041903812
H         7.33331829702115    3.36548110966457   11.16378611680788
H         6.44002694997303    2.13639347609930   10.23688605209396
H         6.25539274783713    2.21966659585986   12.00933297119866
C         5.27702687690295    4.93243670341091   12.47439516988287
H         4.94476038009113    4.33740452219641   13.32340948618353
H         4.70727433902557    5.85874420996355   12.43486480842950
H         6.33843373031734    5.15498915562632   12.58976872594384
C         5.75432802488690    5.14141332903931    9.74963119910899
H         6.68388928201272    5.53138809691295   10.16691598559630
H         5.07076665457716    5.96269596560707    9.55284026011991
H         5.96938143628910    4.62726722477785    8.81574049571602
C         1.74888778353979    5.63374074422158   12.90596761158427
H         1.40231358490223    6.66209884048759   13.01200133346825
H         2.67373840238885    5.49344779185758   13.45920591560856
H         1.00088469572914    4.95249698262825   13.30836284145228
C         0.25296953406894    5.42972315995998   10.58702683436897
H        -0.16649958100892    6.36302112204905   10.96451376937430
H        -0.33213857631585    4.58668262097305   10.94841067569709
H         0.23333928455765    5.42477242083644    9.49874591042253
C         2.63454577519824    6.81333822222927   10.50820915138342
H         2.71831857955076    6.74087422482146    9.42403568664874
H         3.61238241754892    7.02887367134628   10.93238613947749
H         1.94441463489412    7.61675407244264   10.76819312296151
C         2.46274845960250    2.29037177558580   12.95438859154062
C         2.74300268572640    2.78204871097863   14.24747792418431
H         2.05859756348352    3.25646885014984   14.92836547651357
C         4.06858004400544    2.47845057677514   14.47884278232215
H         4.64164669354397    2.69220488523059   15.36704840512795
N         4.67022577409238    1.85059052713669   13.44228363013720
C         3.71702168995395    1.70514703006264   12.51457616511125
C         3.77390349308665    1.04202655667897   11.26025402039176
H         4.68722574107122    0.53736578922717   10.96179460874680
C         2.56408248717965    0.71086035687246   10.62967119871995
H         2.56307761332938   -0.00835990113683    9.81459338646352
C         1.34269014633163    1.24237882611856   11.08125386468184
H         0.42010290146224    0.95036541654013   10.58570086973514
C         1.29596455665544    2.12685008338088   12.17402648813882
H         0.33208519376126    2.46843942750240   12.54525576721012

