59
CSD_code = OHEDOW | q = 0 | S = 0 | Stoichiometry = C16H36N2O4Pd | MND = 4
Pd        1.08940470709722    5.14796182973337    8.38805086497061
C        -0.05182979943720    6.99162989291252   10.24991804974038
C        -1.13242915555732    7.86960892673395   10.87342676084742
H        -1.19812959231070    7.65081826378486   11.93679239040297
H        -2.09119698930333    7.68359418106884   10.39816252416585
H        -0.85240899905872    8.91392210682078   10.75897795498537
C         3.28006994567737    4.35280340917583   10.40978184889368
H         3.67203513795029    3.47815067092518    9.87720880594333
C         3.85746668863618    5.63117230116200    9.80079082672985
H         3.67291939227055    5.65248531720223    8.72517836574381
H         4.93145081330294    5.67464587694446    9.96590116685959
H         3.39088198569350    6.49842822160672   10.26732471892491
C         3.67703593977247    4.29044411048229   11.88840831537805
H         3.26351525791659    5.14893825178514   12.41422931197172
H         4.75945531431110    4.32101430382559   11.97994798414243
H         3.32990064510689    3.38242438565841   12.37567639019797
C         1.10234102878027    3.15092882551909   10.65288826772961
H         1.69494367622222    2.60481696668493   11.40022335921550
C         0.88704264206562    2.23629814917571    9.44627961465168
H         0.36660691568563    1.32955632299665    9.74747244241667
H         1.84194428889847    1.95434642432447    9.00633573928573
H         0.28640432973356    2.75519465889794    8.68440417196009
C        -0.24051484728468    3.52799111387591   11.27386384923586
H        -0.82795444819207    4.10532303095342   10.55927448276575
H        -0.09729119495211    4.12744354351856   12.17156603073341
H        -0.79958164279800    2.63517488145774   11.54261757246236
N         1.81682443121989    4.37494792883903   10.24784496321064
H         1.49910002254821    5.16567256838542   10.82146426103248
O        -0.43876309935887    6.18164485301364    9.36017777043399
O         1.11824869266710    7.08290214376139   10.63345769324287
C         2.23096869265154    3.30432198445108    6.52511312272135
C         3.31221261633940    2.42553620070626    5.90385692873504
H         3.37929558671301    2.64335559393365    4.84038904110803
H         4.27038221173751    2.61172519576383    6.38029326334605
H         3.03172963185508    1.38141687887714    6.01895760045992
C        -1.10224615701262    5.94205973802386    6.36645206272894
H        -1.49456515317958    6.81658159758776    6.89898757249796
C        -1.67916334361061    4.66340109692896    6.97535728320467
H        -1.49509626665520    4.64229242907669    8.05106288482728
H        -2.75305573981275    4.61928027771884    6.80986617309465
H        -1.21191362772800    3.79637037327499    6.50901609606673
C        -1.49921805950194    6.00420232662081    4.88780498750696
H        -1.08490630246646    5.14613040811072    4.36192291622856
H        -2.58160703630702    5.97273879388361    4.79617031522749
H        -1.15282045017079    6.91257129699590    4.40067797058930
C         1.07540030609933    7.14412738221747    6.12283744580732
H         0.48294110597046    7.68966068562611    5.37496648626002
C         1.29024564279283    8.05943890509162    7.32898350420586
H         1.81080819625604    8.96596912305035    7.02739625253995
H         0.33519736036292    8.34172358117846    7.76841855185490
H         1.89062193652949    7.54097082771492    8.09137249810229
C         2.41850129244965    6.76694492693158    5.50243589155424
H         3.00604675791656    6.19059982020639    6.21772462466544
H         2.27565172794068    6.16645328159211    4.60537370917352
H         2.97729593423829    7.65967381873148    5.23280981325288
N         0.36096881656238    5.92034828163694    6.52861821705798
H         0.67884448220378    5.12924124226848    5.95548685288919
O         2.61686785390797    4.11332553550424    7.41617455230720
O         1.06161989661514    3.21435493506925    6.13872688371091

