61
CSD_code = OHEDOU | q = 0 | S = 0 | Stoichiometry = C26H26Cl2FeN4O2 | MND = 6
Fe       10.60185528244614    6.96052219239132    4.02138323640365
Cl       12.38049930649614    7.05905624880889    5.28121571131436
Cl        9.59541132868848    8.44777618874496    5.27105984360434
O         6.17773607101964    5.18866642847003    6.00678154073739
O         9.85509513380863    7.97923878673455    9.05833001801836
N        10.02505279440943    4.99085858604925    4.90486144065109
N         9.05244713561612    6.56798085473929    3.01231662979348
N        11.28544682241561    8.29300524747841    2.82938051713190
N        11.55900269145270    5.73155580552924    2.71638650505479
C        11.84827860927747    4.49826177381056    3.43721411086293
C        10.59138606574050    4.05825500790882    4.13156012263725
C        10.05871625127134    2.79289806793619    3.97118310821078
C         8.88132993419451    2.47934150156660    4.63923258894504
C         8.31532872122155    3.42726109092801    5.46271342344533
C         8.92328054632616    4.68063518189969    5.59780369898991
C         8.43522778307045    5.65311614340072    6.57474686103296
C         7.06728837169656    5.86418344495323    6.80963044213359
C         6.69019523823169    6.75328374817718    7.80660415152467
C         7.63927824656833    7.42977655827201    8.54755191145493
C         8.99917966831313    7.25719440206444    8.29944499159616
C         9.38266924809772    6.35653045896896    7.31348834283823
C         4.81723711560849    5.52995027706452    6.09379022852668
C        11.20620854585838    8.04065143706145    8.64423350792995
C        10.65369529826821    5.49929130479145    1.58834073471282
C         9.22923613530264    5.66089077853895    2.03307064719714
C         8.18638670495233    4.95194177266281    1.47213001780021
C         6.88911905821520    5.19311834129337    1.90440984493993
C         6.70095430134004    6.16083661560289    2.88021215767216
C         7.79758224680357    6.81397291901479    3.40319398093132
C        12.74991256198559    6.46957359626552    2.29804995024814
C        12.33438755279207    7.89756699841831    2.08250898453520
C        12.97398760498499    8.74151432044500    1.19527500137042
C        12.53291068040381   10.05167467064335    1.06371334779792
C        11.44784756590435   10.45297702240434    1.82603098058707
C        10.85643211066180    9.54707915058512    2.68720348518217
H        12.58671737263812    4.74171528364925    4.20741546095791
H        12.24151385662915    3.71290618353097    2.77748594745373
H        10.55202815352265    2.06910298529174    3.34081348121661
H         8.43181016565076    1.50400015350633    4.52696347728768
H         7.42258037201563    3.21377518613951    6.02412807101803
H         5.64819873530283    6.93663989923634    8.01485951760087
H         7.33799750091792    8.12254222240456    9.31698608546083
H        10.42258820470053    6.18296777226942    7.09031032698723
H         4.31923985864545    4.95103590520971    5.31620752362914
H         4.39205659094219    5.25973287659855    7.06640755761560
H         4.65696538162782    6.59776742877634    5.91396274111839
H        11.66758098969574    8.81438849695385    9.25523487732715
H        11.72191352045775    7.09030888984229    8.81293082653573
H        11.28256333840184    8.31241382442338    7.59014044555518
H        10.81776517672326    4.51164224758135    1.13904837132786
H        10.84876921100896    6.25760702922689    0.82290693215677
H         8.38840676767263    4.21981152774206    0.70457806372400
H         6.05868400568780    4.64605000359894    1.48706239814731
H         5.71442474843365    6.40291827980793    3.23885058415163
H         7.70044141104935    7.56530913244879    4.17162625636845
H        13.22003454949436    6.03608185850522    1.40538684316743
H        13.46154400159068    6.45239352342609    3.12934116834657
H        13.81323954022426    8.37741508148198    0.62227887078439
H        13.02450777447196   10.73220203256910    0.38645609733015
H        11.06349562677898   11.45809460147894    1.76386541218337
H        10.02383041224827    9.82234065065651    3.31660059672936

