90
CSD_code = OHEFOX | q = 1 | S = 0 | Stoichiometry = C37H48N3PRh(1+) | MND = 6
Rh        8.53578373003478    8.14428355098314    1.15599459523815
P         6.34685369418944    7.83213046292730    1.79175981188324
N         7.40515968372630    8.39909179361598   -1.55763117179785
N         6.87097826661488    9.20531759101888   -2.48660392352546
N         7.53332164498435   10.36684775514528   -0.76006150741892
C         7.81708901879434    9.07182429377545   -0.47538407408653
C         6.95901423769327   10.39561835063598   -1.99380456598030
H         6.62229519235644   11.28200476427547   -2.48913780466462
C         7.43946506091201    6.96598115421633   -1.71310709697836
H         6.41693739139863    6.58766133108948   -1.60670399004796
H         8.05102665740770    6.58919349020809   -0.87750176955319
C         8.01067749026044    6.46429250525096   -3.05574908526939
C         9.31433158679629    7.18634425693409   -3.39478897318509
H        10.05742794380857    7.03660346188797   -2.61451635966309
H         9.14589803692096    8.25250678962582   -3.52715505765008
H         9.72050241791985    6.79597374975728   -4.32372820279953
C         6.98885018254202    6.68181997785012   -4.17237587410471
H         6.74906225820900    7.73587874130902   -4.27273748062347
H         6.07143515219888    6.13677755861469   -3.96259052311834
H         7.38887456362912    6.32363634253124   -5.11694159472943
C         8.28083784654270    4.96528034374409   -2.89796088299513
H         8.63979746362944    4.55121830517396   -3.83575283745809
H         7.37161834433757    4.43673948060988   -2.62090556197652
H         9.03461716925629    4.77956925885908   -2.13535884058700
C         7.78668599823915   11.50498046098305    0.08821102194016
H         8.07486028488135   11.11236826828694    1.06719770054564
H         6.86249759849739   12.08076178385643    0.19800961688198
C         8.88709405919798   12.40431332115420   -0.47929205640912
H         8.55489441926452   12.81284080665860   -1.43588461814497
H         9.78377785385934   11.80900590921077   -0.66893011700969
C         9.22796952887963   13.55624450054442    0.46736713005383
H         9.86414017599220   14.26167995294919   -0.06875970301230
H         8.31078538200310   14.08158965435213    0.74035653841902
C         9.95454776234737   13.10565887583074    1.72955191705432
H         9.33254286202266   12.45441156713906    2.33912173739561
H        10.22075690491477   13.97083221322690    2.33041541030918
H        10.87166592518571   12.57876885177082    1.47426045122972
C        10.51176255112332    9.10966871816776    1.18609502975168
H        10.36062550301524   10.12643103148085    0.82673765701284
C        11.19403772766625    9.01961990994386    2.53164708391680
H        11.54482835428326   10.01393356664349    2.81310400153559
H        12.07510174856107    8.38493339282443    2.43395997932589
C        10.27444928905724    8.49225770055799    3.65191605143159
H        10.87400921358338    7.97516027461892    4.40757992884950
H         9.79757003972725    9.33643751463950    4.15498235579030
C         9.20020535598807    7.55226469583379    3.16359406870119
H         8.32576473299624    7.50748173159662    3.81518810471329
C         9.41704437789721    6.49487517557393    2.30932230748805
H         8.67317534776405    5.69866516518230    2.29269703708858
C        10.78057407865536    6.09480833498426    1.79479904004458
H        10.80935792411305    5.00952260279199    1.68582987356331
H        11.53267846983576    6.36260743812716    2.53675646831981
C        11.11620614375905    6.73211548670665    0.43365949992468
H        12.20216674500526    6.79982340189766    0.31270645259795
H        10.74928463759103    6.08177300175769   -0.36513152638885
C        10.51758797455790    8.10230808811698    0.24160751743905
H        10.42571788861790    8.39408974224629   -0.80444006517953
C         5.00713415083856    8.01148128386181    0.55628035279362
C         4.35463592180378    6.93727662490287   -0.03726374610601
H         4.56703226285041    5.92759987237582    0.28262776047635
C         3.40966112878802    7.15702570548898   -1.02577199529820
H         2.90505144098136    6.31608068478102   -1.47698177689881
C         3.11043761325108    8.44501349426532   -1.43428317221017
H         2.37909023055997    8.61144224473302   -2.20940308456654
C         3.74417687974430    9.52188040465241   -0.83486051982509
H         3.50024468536397   10.52952767682519   -1.13622587957789
C         4.68512843438669    9.30641645762452    0.15277489979074
H         5.16670989376800   10.14635400245822    0.63696402022630
C         5.81576472691916    9.10053489992917    2.98394656517437
C         4.49199298307212    9.18560691165731    3.40920545878018
H         3.76124667357541    8.48072125023517    3.03661725664486
C         4.11809937760282   10.17591735596977    4.29852629608984
H         3.09347228081519   10.23738092472857    4.63230692022827
C         5.05310092108464   11.09094594757147    4.75907243282929
H         4.75481438088966   11.86201498557353    5.45243144940779
C         6.36676190526717   11.02106077203596    4.32517564582899
H         7.09145132640669   11.73988402322265    4.67783235936934
C         6.74546629395524   10.02799252184878    3.43963755277220
H         7.77071989672300    9.95794570205553    3.08627332266818
C         5.96073106547241    6.23994295130278    2.59079425350647
C         5.45897497577257    6.12320739119686    3.88102565474436
H         5.25322501993864    7.00627587070869    4.46828236657802
C         5.22421145453158    4.86948826437756    4.42026388718078
H         4.82996581994270    4.78593779534574    5.42153705916040
C         5.49435954038759    3.72821530113598    3.68452087337843
H         5.30620546922449    2.75438577409328    4.10900693291803
C         6.01900692349291    3.83688959363483    2.40595667950269
H         6.24506958442395    2.94858865467531    1.83525552581938
C         6.26066947103488    5.08566829563447    1.86583382706627
H         6.69336537393624    5.17656791136061    0.87584769737823

