90
CSD_code = OHEGIS | q = 1 | S = 0 | Stoichiometry = C37H48IrN3P(1+) | MND = 6
Ir        8.57040339964598    8.13639658351306    1.14343064577851
P         6.33236585996105    7.84325616033354    1.83273889389085
N         7.39178865375800    8.41809802637673   -1.60787215422305
N         6.85442788959381    9.25039442676161   -2.51110110237400
N         7.57189663569681   10.36962478133381   -0.78044068502342
C         7.84106604169266    9.06182661254167   -0.51737445720739
C         6.97427558429268   10.43023915646015   -2.00088499210155
H         6.64343892385675   11.33066062265844   -2.47434949446863
C         7.38429428974958    6.99058218321849   -1.80201936162937
H         6.34884835738797    6.64280687285071   -1.72843705247315
H         7.96208129664974    6.57096540350295   -0.97143897922357
C         7.97088644317181    6.50916221032477   -3.14640583131733
C         9.31014441819832    7.19024981313324   -3.42548178152804
H        10.02386015057861    6.98336950887031   -2.63140442037292
H         9.18725366871683    8.26623798478742   -3.52256767260148
H         9.72618267610527    6.81718682305513   -4.35713167738033
C         6.99041906216211    6.79963346275867   -4.28281968210532
H         6.79317988368036    7.86448343494331   -4.35698901544139
H         6.04753619972021    6.28491255405055   -4.11440330165035
H         7.40267594721207    6.45447062021916   -5.22696389257260
C         8.18054458217408    4.99693404253420   -3.02968700660706
H         8.54840537817489    4.59832255187284   -3.97068854125181
H         7.24539327809588    4.49549193507153   -2.79229914468534
H         8.90646965527977    4.76039827664294   -2.25470321342700
C         7.85237100054027   11.49454414446522    0.07655272777553
H         8.14819631519395   11.09057218502856    1.04619443305821
H         6.93740862647544   12.08138750357298    0.20264137700683
C         8.95656067569274   12.38512040232015   -0.49716422734934
H         9.84958423383675   11.78396729257579   -0.68275354252431
H         8.62619932307725   12.78922010576714   -1.45613559697699
C         9.30383741043124   13.54179652415191    0.44094649841993
H         8.39142707675786   14.08173949307736    0.70098843164995
H         9.95360900322186   14.23370243713802   -0.09644832641285
C        10.01321352627528   13.09381354577311    1.71358777173227
H         9.37528424463584   12.46069164515804    2.32527954478771
H        10.29001305022493   13.96139423261822    2.30612049732983
H        10.92214006817720   12.54753341130890    1.47126904729624
C        10.54397788180667    9.07449083912256    1.13693879632478
H        10.45127410526491   10.07235231042037    0.71647081721956
C        11.23158042323935    9.03569282723355    2.48288769532188
H        11.59683869086324   10.03567788393075    2.72095360870085
H        12.10318213231992    8.38485658704631    2.41348390246421
C        10.30540659534748    8.57059433868040    3.62342340937547
H        10.89594477107322    8.08163230193908    4.40402252966075
H         9.83751609307648    9.44262292828079    4.08460961240214
C         9.21795510770896    7.62974635121564    3.16956775265263
H         8.34973654363574    7.61824704844057    3.82890014695737
C         9.42060552047835    6.52830669366251    2.36283409847253
H         8.67113550722637    5.74116604511636    2.39431006295092
C        10.77831450576616    6.07956532696795    1.87680352121437
H        10.78693398560607    4.99056340734591    1.81356388469201
H        11.53176691211976    6.36342274418077    2.61130827963873
C        11.13380389530958    6.65456949319725    0.49404045942305
H        12.22088374533708    6.71384429801426    0.38298053167393
H        10.77400977566423    5.97264834687273   -0.27978659675928
C        10.53547870645749    8.01393011840948    0.23615098661613
H        10.48644184792694    8.26514411793445   -0.82188461258934
C         5.00262205745054    7.99077290212225    0.57979881008242
C         4.34605613072422    6.90718589327534    0.00936393989125
H         4.54660574793912    5.90435717487974    0.35627925399646
C         3.41187979502958    7.10917599835545   -0.99347717438071
H         2.90325143395007    6.26099471483200   -1.42620486023947
C         3.12888113652218    8.38816459051895   -1.43963119732534
H         2.40627209076225    8.54030192037297   -2.22573809275859
C         3.76801765654383    9.47508255597166   -0.86416816011923
H         3.53717199627010   10.47602476713662   -1.19601115870941
C         4.69764916930377    9.27737185430338    0.13750871749269
H         5.18419598043361   10.12477691790101    0.60309922819590
C         5.74669737285149    9.10135338501399    3.01236242028603
C         4.40845951940195    9.14307115522620    3.39838797836482
H         3.71263285082364    8.41509367811649    3.00388863023419
C         3.97504072765055   10.11695705315171    4.27829578320069
H         2.93910205103896   10.14388391294907    4.58007802300012
C         4.86590885786078   11.05900554376059    4.77076629475763
H         4.52239635506196   11.81721290822090    5.45731165794626
C         6.19389522953143   11.03002431453038    4.37885255545456
H         6.88571586481564   11.76755269473482    4.75731718516440
C         6.63219076246332   10.05389049304376    3.50141038639594
H         7.66644731537941   10.02124913456329    3.18572059512729
C         5.96711635644168    6.25180498401122    2.64272330815769
C         5.49420684234190    6.14148249202266    3.94450504048173
H         5.29174168140296    7.02783312137580    4.52797045768165
C         5.28324295469695    4.89061871989201    4.49997558072290
H         4.91152460074460    4.81242239044009    5.51020225906341
C         5.54915605769114    3.74544669375086    3.76885445591446
H         5.37948673828175    2.77370994548156    4.20569463466217
C         6.04618411409765    3.84787501742111    2.47880486242795
H         6.26891591192948    2.95682369572990    1.91124513097016
C         6.26498233050152    5.09385756421330    1.92275601242356
H         6.67668273373127    5.17896083391775    0.92429383926332

