72
CSD_code = OHEGAL | q = 0 | S = 0 | Stoichiometry = C25H36CdN6O4 | MND = 7
Cd       16.37908821607413   -2.51709601559878    3.30072235961105
N        18.27152053518024   -1.23819840104017    3.20547296128686
N        21.05443299570541    1.79322882186393    2.47061512775109
N        16.37868026783300   -2.51649031048364    5.78216265444278
N        16.37931596201859   -2.51631348100052    9.96669979942167
O        15.29646527966568   -0.45872910059295    3.68254565579516
O        15.46019151094237   -1.22275313071215    1.62807088681967
C        18.76620556219693   -0.49677234599690    4.19060751031497
H        18.40440913545680   -0.72621346148195    5.18536338163536
C        19.68523561118718    0.51321722345665    4.00486096932793
H        20.03257654277803    1.06588969828310    4.86161277331735
C        20.14413331572726    0.81032127541314    2.70909191181132
C        19.60660007328436    0.02041536399747    1.67774387248320
H        19.89237464287538    0.17366568613251    0.65092903226996
C        18.69231332049763   -0.96814643294539    1.97217139253241
H        18.26749618041209   -1.58410203404419    1.18936514509732
C        21.56884408599454    2.59033320404232    3.55674944743002
H        20.77071875386647    3.15351465551730    4.05077035911156
H        22.29927763005141    3.29889376019103    3.17415691608114
H        22.06398708967742    1.96076589113900    4.30142861548697
C        21.45745299581486    2.09985795304337    1.11979131656540
H        21.93444493214904    1.23600704226261    0.64803937833433
H        22.17283879133138    2.91844199460952    1.13026603604053
H        20.60075536633824    2.40153174660392    0.50970767605456
C        15.71453539701559   -1.59857864587866    6.47683909560896
H        15.18997457539088   -0.86068374138608    5.88763885369241
C        15.68122596504942   -1.55334603939294    7.85519676817531
H        15.11620000033644   -0.77261349470812    8.33620588782293
C        16.37874250064127   -2.51665411323916    8.60394045405041
C        15.64604245581356   -1.51078977637094   10.69520086710201
H        16.01826259156951   -0.50730883764315   10.46666239381941
H        15.75921183816098   -1.67949176046933   11.76326640479378
H        14.57912242288218   -1.54880633394081   10.45496751941050
C        15.10611549449137   -0.36003687799691    2.45302904586610
C        14.40570122104519    0.89584025106601    1.92575319309990
H        13.93096127475657    1.43185548852670    2.74236173197460
H        13.66965846858857    0.61700923877205    1.17685941034963
H        15.14876230228560    1.53700969930251    1.45663546610783
C        17.04147985464840   -3.43548848788303    6.47666715436773
H        17.56796501317664   -4.17189082888874    5.88724428837577
C        17.07506639355601   -3.48072166568349    7.85503384042166
H        17.63972482384651   -4.26178667546839    8.33592099188458
C        17.11236852632448   -3.52215179193986   10.69497643121898
H        16.74048402446613   -4.52560960831698   10.46582801565738
H        16.99879127408768   -3.35400907018089   11.76308390910724
H        18.17936029978715   -3.48372045803392   10.45507922557914
N        14.48798328550786   -3.79600418657416    3.20827292242150
N        11.70226649892204   -6.82430653124693    2.47171516314593
O        17.45505245574824   -4.57884781570820    3.68080657545968
O        17.30067432994786   -3.81033827582581    1.62733466647295
C        13.99257329667040   -4.53734384035403    4.19310186098553
H        14.35355647221566   -4.30776142680439    5.18811002435759
C        13.07276496780105   -5.54654667642820    4.00687258969555
H        12.72449046567518   -6.09909631210497    4.86335277420377
C        12.61412006043231   -5.84300603387063    2.71088248576172
C        13.15335756921934   -5.05400389663533    1.67975172658907
H        12.86849961414618   -5.20725236449378    0.65270067042089
C        14.06813788141806   -4.06609446977647    1.97468764959237
H        14.49397836164907   -3.45060082569979    1.19198684843536
C        11.18661342460863   -7.62169670242514    3.55702737686878
H        11.98395024752556   -8.18577410221737    4.05128926420625
H        10.45591634618930   -8.32947684569444    3.17346618469229
H        10.69139135311500   -6.99220254039651    4.30171537634532
C        11.30034886962660   -7.13015819621509    1.12037480285239
H        10.82395082607517   -6.26591336444495    0.64878576608966
H        10.58490844625995   -7.94868440700087    1.12958433893562
H        12.15749411917883   -7.43144317765124    0.51083097714722
C        17.65220330320337   -4.67414244608778    2.45205081796878
C        18.35375380498599   -5.92946212778828    1.92481153433511
H        18.82239323538503   -6.46897535745770    2.74260017158013
H        19.09524466384834   -5.64868516051819    1.18202554829306
H        17.61326058567265   -6.56807898950213    1.44812575556732

