65
CSD_code = OHEHIT | q = 0 | S = 0 | Stoichiometry = C20H38N6Zn | MND = 4
Zn        0.97377906297296    5.84923620036851   11.66849461195872
N         0.75756882544261    4.72006286775810   13.63500934622138
N        -1.08563749867455    5.73687660857754   14.58174262249076
N        -0.78395465105326    3.48008132225879   14.94797297025369
N         2.22602216376171    3.96572741962281   11.37814385422916
N         2.31018655022954    1.89816377768983   10.21401552511564
N         2.48560964818830    3.90061118220186    9.08416109509445
C         1.85009696372386    3.88024976142091   13.76726588082656
C         2.31343132257211    3.50340986628332   15.02747745920543
H         1.76570822177322    3.83508945320470   15.89981790772486
C         3.47209159723975    2.76498570667100   15.18017818764152
H         3.81175587454745    2.49455106418850   16.16949173435614
C         4.20027859490444    2.39429994093071   14.06428910587332
H         5.11597081675977    1.83100650911745   14.17123409281994
C         3.76212365302905    2.76470276717881   12.80651655138228
H         4.35246489208161    2.51618863552243   11.93435362844702
C         2.59111968948300    3.50117134162742   12.63030939368112
C        -0.30920673103139    4.63175329359219   14.35736678359468
C        -0.53100735430009    7.04822041097265   14.34368709231429
H         0.53663837267564    7.03032234109554   14.54145272033498
H        -1.01562736969561    7.75269304089049   15.02314636897839
H        -0.68772890159028    7.38302717657416   13.31370056195094
C        -2.51799088033607    5.67203965185959   14.38728023540584
H        -2.85789072218047    4.64082828565248   14.39786584818474
H        -2.78602417112235    6.11363223344389   13.42158876650735
H        -3.02896611203593    6.22770129808950   15.17707710269094
C        -1.37875499826683    3.49285307140471   16.26298407637600
H        -1.46794407831809    4.51485980917719   16.62013840153286
H        -0.74800149523011    2.92934838373149   16.96010470805616
H        -2.36925099320487    3.02785285484468   16.24980806453713
C        -0.42391914721639    2.17476740034055   14.46334982419523
H        -0.16111397250240    2.24313790173968   13.41108417104252
H        -1.28885935183123    1.51380232807434   14.56580194664022
H         0.42064901004132    1.73745072229912   15.00954754002283
C         2.33695646514125    3.27389481565052   10.29373654538358
C         3.15700333082540    1.17558885804140    9.29543590867454
H         3.69830551782438    1.87337397428678    8.66286782080944
H         2.56798659848126    0.50092944711622    8.66658715600905
H         3.88056334372600    0.57246100536715    9.85581929837882
C         1.70124843009360    1.08822807347303   11.23440971149918
H         2.42649708063913    0.71361403876973   11.96685848226750
H         1.21131746589120    0.23513952933353   10.75705055618458
H         0.94947070425165    1.67370413887954   11.75675313397863
C         1.63874270245916    3.53094729666397    7.97013750076789
H         1.23138360803056    2.53484756956457    8.11444269780805
H         2.21405476253946    3.55347712335440    7.04194741023168
H         0.80476648465879    4.23542945681997    7.88073052203333
C         2.89727852537481    5.28420021451913    9.05636193550125
H         2.04646309119947    5.97083635721705    9.10399894206473
H         3.44249531389443    5.45925174844981    8.12643688573445
H         3.54926271995938    5.48423534729984    9.90145410578589
C         2.33772893342904    7.37188351669121   12.04367735342998
H         2.77486298414699    7.77547086348706   11.12370080076214
H         1.87350291942376    8.23569040279989   12.53216818615461
C         3.49774390821535    6.91843523655952   12.93427371654461
H         3.13948957672455    6.56489503887362   13.90011475066529
H         4.20437125976709    7.73473039737582   13.12063268109330
H         4.05176001128542    6.10067290780317   12.47544842450780
C        -0.81825915110188    5.40215457784704   10.65558231792880
H        -1.63653330545875    6.05725650338236   10.97815525664236
H        -0.72807739167602    5.58780086358893    9.57849906747729
C        -1.30190078315433    3.96071020617461   10.82609269139988
H        -0.56021576480113    3.25303203171661   10.45447833128680
H        -2.23447895553280    3.77557510856499   10.28014987393239
H        -1.48760721712695    3.73292872193911   11.87593975537731

