71
CSD_code = OHEHOZ | q = 0 | S = 0 | Stoichiometry = C24H40N6Zn | MND = 4
Zn       10.66516022725597    8.72015341043458    3.38004174388185
N         9.12748084873144    8.59395919166902    1.73044134972762
N        10.11854925850797   10.21447613067599    0.41372482540835
N         9.10008323095350    8.42814808695194   -0.63465215080809
N        10.04950443286813    6.57355448490042    3.61299206280942
N        10.82730078753363    4.39680875687597    3.08460491794427
N        12.10928646994291    5.83304645341531    4.35578547348720
C         7.90203824887212    7.99675923079595    1.96824623814957
C         6.80674750339885    8.57585810352349    1.33765148345224
H         6.98058578565744    9.42248995387565    0.68643727142353
C         5.50245865128534    8.14089359587137    1.54343996154039
H         4.68878909650420    8.62600996805814    1.02272043978828
C         5.27116257629949    7.11391365933143    2.41076091733341
H         4.26782741735836    6.75877523199726    2.59542948179542
C         6.33805975050969    6.51110036941891    3.10765901458326
C         6.02848918859251    5.48233626473474    4.02072602030991
H         4.99401282374618    5.19664295020578    4.14401950122470
C         7.01252183283454    4.88078000906501    4.74878051459202
H         6.78190760676241    4.10958741828377    5.47021752740155
C         8.33313918189502    5.27185516687270    4.55771301108785
H         9.10951266508177    4.81574259049916    5.15829484775993
C         8.70055271914644    6.25512172723588    3.64733659399637
C         7.68831268875032    6.93356992691576    2.90053673183776
C         9.41834265891136    9.06219988101454    0.55214993563747
C        10.11389635032748   11.22272315535863    1.44507428247691
H         9.32824107985360   11.00746773750602    2.16279861846248
H         9.92733081528860   12.19634823187331    0.98095657962846
H        11.06689654340437   11.26486505578167    1.97540348553054
C        11.09928507892343   10.42469050743387   -0.62327842855913
H        11.15700382567849    9.55643549244571   -1.27285273789814
H        12.08069080888614   10.58118676938891   -0.16719921351119
H        10.85444425134656   11.30831966148033   -1.22074966699054
C         8.57118047017650    9.16183665963209   -1.76151874382748
H         7.51021105311249    8.92086832384039   -1.89800701442033
H         9.10308693391162    8.89408189403442   -2.67878121106311
H         8.66239922415098   10.23108351184758   -1.59503204982421
C         8.77663224187188    7.02547281832897   -0.64452694088555
H         9.30955265778787    6.53658470519667    0.16647420202254
H         9.10907604630148    6.59894328418059   -1.59396579461703
H         7.70259826246080    6.83610132184280   -0.52835776534446
C        10.94486124669599    5.63380648116751    3.68972259004679
C         9.88691452345535    4.18252187431523    2.01576112188034
H         8.93083524236213    3.78000378888776    2.37117100421817
H        10.32304666913442    3.47658326725654    1.30412532372660
H         9.69957630391126    5.12430739979223    1.50865053610843
C        11.21167787538637    3.18577628207997    3.77301169858572
H        11.73744887975627    3.42180688863229    4.69333562976106
H        11.85501056856130    2.56900301273537    3.13914140617654
H        10.31790695275434    2.60248123954608    4.02386961765137
C        12.19856348149628    6.78261617206236    5.43734583779183
H        12.77282103461392    7.66715454690178    5.15638628987048
H        12.69326912496886    6.29972335362436    6.28652150769416
H        11.20009433165488    7.09267692455102    5.72948101551732
C        13.37785195880189    5.31381168913448    3.90643488496619
H        13.24805196399078    4.71963581335924    3.00682573767360
H        13.84635855804613    4.69924727967656    4.68155500547167
H        14.04934738862173    6.14599490276188    3.67736954390619
C         9.60769496978968    9.79896235667885    4.81162303918723
H        10.08693157579878   10.74216219916282    5.09744366822418
H         8.65968999803661   10.09260271743747    4.34726714437542
C         9.24596446619315    9.06647190149989    6.10709399754540
H         8.75303778553655    8.11785117510492    5.89681390219063
H         8.56211621410117    9.66162889251164    6.72160267388445
H        10.13268536810405    8.86833326284936    6.71000131950710
C        12.48589445837490    8.57673152572439    2.31146086925870
H        12.77481728944754    9.53686925789102    1.86679567322573
H        13.33207246463674    8.32426542157634    2.96183168165195
C        12.46797955264888    7.54646979070063    1.17966194605287
H        12.24424141122157    6.55010516448559    1.55771562468889
H        13.43213355159920    7.49385505226989    0.65922053558514
H        11.70925349542533    7.79194867281314    0.43866385804157

