87
CSD_code = OHENIA | q = 0 | S = 0 | Stoichiometry = C42H34Cl2N6P2Pd | MND = 4
Pd        5.58944483271591    2.87929324628879   10.25008132534964
Cl        4.48316565447000    1.35419048612724   11.52438217724388
Cl        6.67440357695104    1.28544641727704    9.04234976035429
P         4.41657765023166    4.28958601755835   11.52414453806499
C         4.10285466317176    5.96771702285052   10.93454388849891
N         2.85897573289090    6.49554539609521   10.97642995447388
N         2.84745136884748    7.61700439163795   10.37560307833315
N         4.06788338688829    7.88763648092032    9.92483748886167
C         4.91432372957604    6.87230147252640   10.25288451443643
C         6.32290588887431    6.85867510641005    9.97374663710079
N         7.17289232323580    7.89387420712031   10.22190941103061
N         8.39198474302560    7.58535104700705    9.79209240166500
N         8.37624357453835    6.42072061513409    9.28038276112128
C         7.13086910002907    5.90095807950289    9.36472436445250
P         6.81398732335347    4.18059646317722    8.90804573172194
C         5.97730147352841    4.32186985687574    7.30783677665293
C         4.82001540376536    3.57002646510493    7.11790958215668
C         4.15547450649631    3.62823759047077    5.90604631150750
C         4.64101557405411    4.43731279168438    4.89013938137164
C         5.77748509922670    5.20744217115105    5.08779559794931
C         6.44614283933569    5.15776682881908    6.29752520912064
H         7.33117137974062    5.75701821633799    6.46745910358970
H         6.14275163008669    5.84574137937560    4.29656559735402
H         4.13229513950812    4.46763758200034    3.93729862490435
H         3.26388153697459    3.03966552406924    5.74909699116401
H         4.45919830395952    2.91928516997070    7.92624476373534
C         8.52306823768952    3.65348417741478    8.63930975574758
C         9.09370075231504    3.40893495784502    7.40057575056704
C        10.40645229957790    2.97400670117516    7.33397929532975
C        11.13987556606351    2.78107440318828    8.49157236824698
C        10.56170478580159    3.01042614240361    9.73095218745322
C         9.25326910721985    3.44085150858619    9.80589439214583
H         8.77077139967968    3.60122445046799   10.76812093580621
H        11.13069406854910    2.84238870773530   10.63355406214537
H        12.16202137773086    2.43751237248301    8.43051081544184
H        10.85534605963477    2.77688799018522    6.37136078470720
H         8.51465132126223    3.53517517407838    6.49721053673741
C         6.96193032569146    9.07340226941081   11.02486837055103
C         7.79742404948497    8.99257788367040   12.28138193178669
C         7.71946907710631    7.86655403576078   13.09064957700382
C         8.49401223386329    7.77622559674600   14.23246799104961
C         9.34260672531078    8.81338198278428   14.57957476414234
C         9.41876296140984    9.93953220241112   13.77861169232701
C         8.65348423448180   10.02631225687280   12.62901129036164
H         8.72299073540601   10.90090965691704   11.99897690606787
H        10.08114571223419   10.74966074572164   14.04351983416582
H         9.94604761106497    8.74223607346978   15.47174017495505
H         8.43056414526480    6.89239561272609   14.84824399672465
H         7.05677981363557    7.05236891857132   12.82909432681602
H         7.24669693280789    9.95485760997870   10.44337704836322
H         5.90148245320461    9.13486995597708   11.28500438946253
C         4.28131397018842    9.00154695278463    9.03250492970560
C         3.47369688298864    8.79792892612166    7.77206124943007
C         2.51624971136066    9.72315423127195    7.38550512992892
C         1.77307080372025    9.51636530021092    6.23668636543231
C         1.97401469163734    8.37776709962432    5.47590139261274
C         2.92356680563681    7.44749706481434    5.86289853754136
C         3.67426366890730    7.65747128448425    7.00488851043222
H         4.41526052496948    6.92616368219455    7.29982400516944
H         3.08441607857733    6.55468004087014    5.27867541211783
H         1.38891938176662    8.21297604090015    4.58388697464008
H         1.03069526948717   10.24214596146716    5.94098815925299
H         2.35026515839378   10.60623995211640    7.98466364106939
H         3.96836590055438    9.92092118372743    9.53493101113170
H         5.34568966134112    9.05907351648837    8.79055267533321
C         5.32385070771094    4.54856780989248   13.07126947128073
C         4.93883380252150    5.50397395776199   14.00850351667086
C         5.66198723481268    5.64263994553512   15.17933198688699
C         6.76910684952394    4.84007656521447   15.41114479653678
C         7.16910067963821    3.90608055031593   14.46781782223538
C         6.44968755193816    3.75889417121257   13.29532258271922
H         6.74173720702167    3.00926954358436   12.54699576956555
H         8.03720975989163    3.29037470704880   14.65059327176940
H         7.32130143541971    4.94255806490275   16.33420023236042
H         5.36256757120755    6.37634639640973   15.91340820766315
H         4.07487031255433    6.12595739965423   13.81369821775901
C         2.71802644900276    3.81087689165566   11.91747462321733
C         1.93272691159315    3.49414474877177   10.81205694364439
C         0.62413606551871    3.09574066245231   10.98876333921905
C         0.10101576350612    3.00219540929443   12.26973847633826
C         0.88883193031379    3.29881748940405   13.36799487848194
C         2.20225474047033    3.70320237170239   13.19897284227145
H         2.82298102602506    3.91320964306244   14.05814470150741
H         0.48226687597267    3.20755166735914   14.36467805970940
H        -0.92119742160500    2.68335494141604   12.41087230810859
H         0.01204572418120    2.84711375833935   10.13435739040420
H         2.37352189155430    3.54677065569896    9.81865341757630

