87
CSD_code = OHENEW | q = 0 | S = 0 | Stoichiometry = C42H34Cl2N6P2Pd | MND = 4
Pd        4.51319590832791   11.84236473932107   11.63583365236866
Cl        4.09041929999067   14.06267624754130   11.50552440108109
Cl        6.73712438031066   12.09526398170597   11.22529048861841
P         5.23723946666186    9.71115793578772   11.62111024382921
P         2.36765832103619   11.55172702845859   12.19773830091100
C         6.77072783325657    9.27509817700202   12.47796508994024
C         6.72579462306494    9.23252810523277   13.86838372652457
C         7.87586346853976    8.96904133318990   14.58672140056996
C         9.07392913149164    8.76005328549008   13.92290745586977
C         9.12186144085812    8.82354910851569   12.54030081610644
C         7.97495568337522    9.08599722343951   11.81310458730611
C         1.51455831404049   10.21818496359645   11.34597710310950
N         0.49234687439862   10.42897488027921   10.48945563601518
N         0.18514134927447    9.33569681901974    9.91411153019811
N         0.97304833657461    8.36285205800002   10.36219389819102
C         1.84282898236768    8.86485718460258   11.27995037870493
C         2.81972823275843    8.12201198016184   12.02471306497785
N         2.58461134077484    6.97967449103847   12.72719043382890
N         3.71996007738921    6.54949904646728   13.26754964625326
N         4.66539559394582    7.34470043798704   12.95869737825162
C         4.18438397261659    8.35030972213268   12.19706986833203
C         1.33705338353760    6.31664095537176   13.01323266068538
C         0.89025433292890    6.51195651224868   14.44512867126192
C        -0.40020808646871    6.94545430086847   14.71371919322047
C        -0.83836314599204    7.06077060375279   16.02218459607953
C         0.01474775311476    6.75370581691197   17.06870839514929
C         1.30956776916123    6.33852833941892   16.80338191479794
C         1.74641838014471    6.21342450495156   15.49691422158890
C         0.94184245595047    7.05483283333721    9.74758278803058
C         1.10978631902676    7.20442700922681    8.25541614609720
C         0.02680409729739    7.04835449776568    7.40331696733560
C         0.18573648594906    7.21748248920396    6.03941658364226
C         1.42525315175271    7.55211360905325    5.52210266509521
C         2.50595194636735    7.71829439953742    6.37120165851624
C         2.35056676113361    7.54604099032296    7.73454333315253
C         2.45762436854546   10.96314506809809   13.91713110572497
C         3.61414214108217   11.28071475398990   14.63021919552800
C         3.76864904043806   10.83540567312230   15.93096606084923
C         2.77017535960490   10.07921775820254   16.52483253196107
C         1.61289388952030    9.77708884888541   15.82530574644736
C         1.45520105584909   10.21198015156089   14.52184069349670
C         1.13028511474854   12.86659095646454   12.15727606232792
C         0.84929360720935   13.41989996923109   10.91152976943390
C        -0.06440031296456   14.44977916133843   10.81156204609648
C        -0.68742828113691   14.93529767366085   11.95113015845181
C        -0.39397656304431   14.39423555608423   13.19132020867266
C         0.51900991466028   13.35989243461271   13.30203068939377
C         5.09391066322864   10.20801930520235    8.90289880296340
C         5.44129545183512    9.26891420462738    9.87169161677318
C         5.93145536629501    8.02125395757660    9.49408258086765
C         6.11873675919034    7.73612115653427    8.15358187726801
C         5.80962572574362    8.68662477793413    7.19234391184485
C         5.28286734285406    9.91401629160558    7.56414385230429
H         5.78643417430589    9.40700564826391   14.37811564757428
H         7.84100999948253    8.93276053417148   15.66580467256964
H         9.97397785783903    8.55843888010120   14.48505151378814
H        10.05981946437802    8.67815987005601   12.02473414441716
H         8.01791397268418    9.16556427431775   10.73651638532023
H         0.56926880443738    6.69676821488893   12.33858409345492
H         1.48362007516986    5.24611100863217   12.82910943956719
H        -1.07206658158170    7.18461997326647   13.90107636031764
H        -1.84645241586110    7.39206110752513   16.22206680989084
H        -0.32823514889631    6.84161787118863   18.08878729170650
H         1.97995960398463    6.10348585863027   17.61600665641351
H         2.75363531938591    5.88770391809731   15.28344942383717
H         1.75742556505716    6.45888521106390   10.16562558502333
H        -0.01764494011195    6.57623986615970    9.96793284674559
H        -0.94244759064962    6.79735041739442    7.80763033705151
H        -0.66077373552524    7.09258055213183    5.38137429793534
H         1.54890752501979    7.68693980381498    4.45819266274830
H         3.47368459612634    7.98466503720030    5.97609964282268
H         3.19704576506350    7.68033124081125    8.39416264806706
H         4.39391895983878   11.89549999077728   14.15526065210844
H         4.66621288510241   11.07684181353799   16.48101345287539
H         2.89015152016203    9.72713131148574   17.53838986456817
H         0.83218853013425    9.20013473719142   16.29631337614655
H         0.55349752661609    9.97698550934783   13.97171349857480
H         1.36151039254812   13.04232148374860   10.03634636850906
H        -0.28460506202460   14.88365786249458    9.84776883130030
H        -1.39673400740762   15.74624546276549   11.87352709196812
H        -0.87185722221067   14.78346130336715   14.07869475478965
H         0.76001016580982   12.94498906539594   14.27139310586406
H         4.69783156639808   11.18881322106676    9.20688556985519
H         6.17485186989718    7.29232111811229   10.25624858913626
H         6.51460114587739    6.77555563369562    7.85766930420280
H         5.98575748126302    8.46905766450507    6.14883768125358
H         5.03023705916160   10.64545122537392    6.81119159242751

