101
CSD_code = OHEPAU | q = 0 | S = 0 | Stoichiometry = C42H47Br2FeN3O4P2 | MND = 4
Fe        5.44361585975176    6.46712881097628   17.77789735736225
Br        5.58310304888812    8.19381554596452   19.21063364481234
Br        4.44642624417923    5.62682543895873   15.93952724403100
P         5.55264680071062    4.70305001744070   19.01648353630711
P         7.79380019295018    8.93376283083219   14.73815906458630
O         6.43356467550525    9.82607866782685   14.87891272325888
O         7.29604951712720    7.93855346850295   13.52729376820259
O         6.53577187220090   11.91803007734550   11.89247867651285
O         6.25519233971806   10.00140315208837   10.72407480734102
N         7.34882910325766    6.18165043101343   17.49374219572568
N         7.24824517797715    4.50857384290549   19.05618503397908
N         7.27553206141086    7.89358366994463   15.96750219711173
C         8.02323111624825    5.27011864463131   18.21787825746575
C         9.40052054985340    5.12508630732398   18.11714069714014
C        10.09095715677926    5.95063341565228   17.24244840742083
C         9.40339415193729    6.88434129796113   16.49376999479608
C         8.02140641897192    6.97847626872194   16.64554479115804
C         5.09027163886798    4.64953263488606   20.82747159273187
C         6.15116940509335    5.31262904334033   21.69827923356724
C         3.74909695157307    5.36518506559302   20.98630033259891
C         5.03216985521103    3.02120360900356   18.36969999907966
C         5.76771335200987    1.84843512684769   19.01194233137820
C         3.51930268729024    2.85703211036319   18.46622928656183
C         6.33123750483949   11.07098812525476   14.20818950362770
C         6.89965818382556   10.88312693604780   12.77234913434234
C         6.42602355284594    9.59815524267021   12.06108791125294
C         7.37769076043145    8.37767122418808   12.18039802023968
C         7.12571524700861   12.11387227145249   14.97548453777294
C         7.79538586201085   13.15137703905049   14.34006226533079
C         8.49782509269650   14.08340023344715   15.08483887458984
C         8.53919918372373   13.98989064600696   16.46509243053628
C         7.86643568732667   12.96172199039632   17.10230951890118
C         7.16038963503604   12.03144439249109   16.36195120489095
C         4.86521700396353   11.46185509038783   14.16962744833505
C         3.86911824372560   10.51195542073961   14.35680306238809
C         2.53446032492390   10.87546726203412   14.30084807773718
C         2.18141306117733   12.19023426580407   14.05485906125550
C         3.17087559119300   13.14094075391718   13.86878402640848
C         4.50530133611589   12.78222105170034   13.92763176945412
C         8.82634229341108    8.64758396148934   11.82512590147325
C         9.21291531552006    9.58718909816737   10.87762793606341
C        10.55267156025184    9.78195332353744   10.58899861360745
C        11.52388637325226    9.03595190302071   11.23296302275828
C        11.14543873759030    8.08147194774530   12.16095183282875
C         9.80772746206842    7.88699618285064   12.45177542703691
C         6.80197972294060    7.27280847939142   11.30431516412788
C         5.89191425668399    6.37160204384925   11.84033159958455
C         5.33732825596819    5.38343416397394   11.04625028958954
C         5.67816963276877    5.29283190608700    9.70849251711185
C         6.57958227759097    6.19498097668372    9.16953199667327
C         7.14186651023697    7.17979013790082    9.96172640191939
C         5.91410241962320   11.37017759374291   10.73166899023976
C         6.49268774082411   12.04263816126856    9.48699720594379
C         4.39391719603126   11.55963106908502   10.78320810498624
H         9.90997012819135    4.38600534961730   18.71342218075557
H        11.16139207186602    5.85985360646613   17.14719767601085
H         9.89604671826738    7.54664990121213   15.80148483095472
H         4.97451224569554    3.59965917459159   21.12208526249520
H         7.07468009336376    4.73811955044424   21.71981332600725
H         6.37145447912247    6.31320697214325   21.33264398920168
H         5.78296352230015    5.40041309903207   22.71879355451900
H         3.00935395048188    4.98454770758141   20.28386685235393
H         3.36441010323182    5.23336358575673   21.99596604130828
H         3.87512687740685    6.43084084182499   20.80862414616513
H         5.30541289544282    3.05818266101188   17.30648480283521
H         6.82932843443862    1.86945681627714   18.77515489061699
H         5.64748365341943    1.83721909733430   20.09359794149290
H         5.36069214054948    0.91628969463323   18.62378494328739
H         3.01553589659738    3.72006990408328   18.03341351939234
H         3.20307846760008    1.97433773646795   17.91345482753208
H         3.20219740848371    2.74168419657815   19.50073657201804
H         8.00122069951674   10.86478662633097   12.87163752675477
H         5.45925977993467    9.27468382839733   12.47989481028636
H         7.76006124095397   13.23777572956673   13.26528030770293
H         9.01546285135232   14.88663766799439   14.58099012643776
H         9.09050967017604   14.71796720253743   17.04171398303239
H         7.88591724246483   12.88227274934714   18.17882668850706
H         6.63203852136664   11.23494805845031   16.86320605055326
H         4.13322901235813    9.48419831465475   14.55431541927852
H         1.77131620723114   10.12580882414808   14.44940896381748
H         1.14020215277336   12.47349939398002   14.01155444050344
H         2.90285502317152   14.17017765076751   13.68026049026230
H         5.27237154401316   13.52589119823561   13.78174965749069
H         8.46494809326525   10.16176755060588   10.35812175963149
H        10.83691681340060   10.52024707205263    9.85329073668150
H        12.56829642885674    9.19126883534076   11.00656125986733
H        11.89323644291749    7.48113004343599   12.65791264338982
H         9.51701583038952    7.12753670576544   13.16242923285853
H         5.62030788506574    6.43111085046878   12.88229103480631
H         4.63450897141555    4.68843316323233   11.48048806699446
H         5.24325676879153    4.52365599063481    9.08704820011341
H         6.84945448178152    6.13237332632383    8.12532068685553
H         7.84252710037706    7.87844161543605    9.53297795070370
H         6.12665517851210   13.06219995991560    9.42262399780591
H         7.57768733436672   12.06152379784537    9.54292871391572
H         6.18671617705046   11.48299341201266    8.60859533209366
H         4.16490235061232   12.61125497108856   10.92511812675967
H         3.96124301349640   11.20880165511637    9.85075858155500
H         3.96602231065055   10.99597850320539   11.60696550250906
H         7.71380518354946    3.80532362556093   19.61276645398829
H         6.25833040070013    7.80981940987034   16.03006087428599

