68
CSD_code = OHEQUN | q = 0 | S = 0 | Stoichiometry = C32H29Cl2NP2PdS | MND = 4
Pd        8.39229996812209    7.86758970284387    0.72094143744502
Cl        9.94783293481749    6.96294268168976   -0.62200306197137
Cl        6.73854265707800    6.85151503134440   -0.45022342430864
S         6.75558298589173    8.83557759169618    2.28544202460074
P         9.97803882722167    9.20482934337877    1.58250159047086
P         8.21531239630913    8.19700937088882    3.45003033779444
N         9.64720910480640    9.12973648702710    3.27814932442260
C        10.20025163530281   10.08468408692528    4.25051500348538
C         9.19625043495135   11.17874174786777    4.59500926281851
C        10.76760351524192    9.34659749618359    5.44193553277845
C        10.27208020813316    9.47258660106585    6.73218326626440
C        10.83819798474985    8.75509493762561    7.77313546388146
C        11.90145093341903    7.90170136824879    7.54105078630919
C        12.41461879059117    7.78260259147097    6.26003740442773
C        11.85636167567545    8.50619309816570    5.22282026208367
C        11.78191406775784    9.06246721500523    1.47768417775617
C        12.29777881734197    7.78595491245052    1.69781818494992
C        13.65658661851786    7.55846978651695    1.60064908987106
C        14.50882975302775    8.59911464064298    1.26447342450859
C        13.99518949174407    9.85795965995970    1.00257016314516
C        12.63400720807239   10.09276661274088    1.09702569804205
C         9.55889058533697   10.87826037226704    0.96607086067245
C        10.04950506059989   12.08406547230167    1.46529189251865
C         9.64169254331129   13.28369680399926    0.90882085423881
C         8.75186828097889   13.29726995851934   -0.15269033631800
C         8.26854630251177   12.10432200430149   -0.66460110622574
C         8.66729462522100   10.90096188717855   -0.11043370120249
C         8.75647910413637    6.47328081252163    3.13754798885952
C        10.00410021143285    6.01362535812441    3.54808337019800
C        10.40671302473241    4.73234212595649    3.20821817421825
C         9.57618242378081    3.91445871601012    2.46054225790633
C         8.31447129856980    4.35358668794864    2.08699575652328
C         7.89217994547019    5.62746219264326    2.43047432145606
C         7.67878420621337    8.20634464752757    5.18659263387624
C         8.23892186563979    7.34417810262685    6.12093607701195
C         7.74323250518086    7.31831786319651    7.41210198327362
C         6.68890604159759    8.14142758646562    7.77187398336215
C         6.11396627678165    8.98443141561604    6.83380895315471
C         6.60002373213211    9.00986904250940    5.53998630688313
H        11.05492685939125   10.53834966250641    3.72564076229539
H         8.34192436653771   10.76639455126274    5.12486105694231
H         9.66868445000154   11.93873026207133    5.21377630606283
H         8.83164845089781   11.64424821181288    3.68139703373828
H         9.44370702043319   10.13007559722431    6.94255626602095
H        10.44056860697327    8.86601666823137    8.77093892521348
H        12.33598650305218    7.34015719713383    8.35427503264513
H        13.25514068322486    7.13194238567647    6.06883325006683
H        12.27314438113396    8.43149132195729    4.22696283974787
H        11.61538943580063    6.97373424041708    1.90960864884351
H        14.05097155024260    6.56759068158227    1.76954248839336
H        15.57120985614317    8.42329479193684    1.18397837595519
H        14.65570509495364   10.66131282106540    0.71106271054412
H        12.24102327576116   11.06910251189111    0.85596924521205
H        10.74799781487223   12.09899409320580    2.28960359913361
H        10.02379035323670   14.21229591864571    1.30752439718693
H         8.43816643713451   14.23758725260273   -0.58048800595782
H         7.57820721200031   12.10961877458417   -1.49432545013975
H         8.27879964081100    9.95803359864176   -0.53084427991470
H        10.65734294553099    6.66175293288594    4.11700470254489
H        11.38148351901413    4.38238050753921    3.51557610043984
H         9.91027635669869    2.92963575499442    2.17145741617989
H         7.65960322360577    3.71356000254584    1.51597096163463
H         6.88392145737198    5.95454594864085    2.17820696231838
H         9.05691065263141    6.69710368321937    5.84308103605021
H         8.18073263378784    6.64902914237735    8.13745717478288
H         6.30493780236685    8.11651620643830    8.78067258662912
H         5.28047634480751    9.61382872396759    7.10722594015692
H         6.14232502921959    9.63974054150029    4.78870769805545

