68
CSD_code = OHERAU | q = 0 | S = 0 | Stoichiometry = C32H29Cl2NP2PtS | MND = 4
Pt       -1.75841815157496    7.85310201436399    0.57306131892700
Cl       -0.10470852464833    7.11674590606760   -0.80835417784096
Cl       -3.27628401844128    6.57909011014543   -0.54452081910588
S        -3.48006183710485    8.64997440533779    2.18078391279436
P        -0.27413791992415    9.27522502084888    1.51416518347087
P        -1.99221292069639    8.10961899352410    3.37288642895953
N        -0.60246341534844    9.10365450479531    3.20609089009381
C        -0.07028734890970   10.05523592272705    4.19407390602859
C        -1.07014929931478   11.16104931508416    4.51308906611093
C         0.46613059286646    9.32698199277814    5.40571370185999
C        -0.08649668416057    9.43831341635362    6.67425558652704
C         0.45678615808090    8.73992288194791    7.73983931990087
C         1.55524303147724    7.92016667063053    7.55511666565135
C         2.12635213574502    7.81745420223676    6.29757287779105
C         1.59036931317337    8.52265421312137    5.23580123624103
C         1.52323951589513    9.11174690973642    1.37838168607201
C         2.07089033656307    7.88975852179484    1.76509276278604
C         3.42112450465484    7.64864742803651    1.60537787538916
C         4.23326244041428    8.61623496763687    1.03430761830696
C         3.68474375072506    9.81139698080634    0.60157334692877
C         2.33206236286817   10.05909599318172    0.76023341603097
C        -0.65580709351200   10.99738897639052    1.04779690516603
C         0.00045052885363   12.13469430563100    1.51685364532100
C        -0.38743125474777   13.38741963461699    1.07678686239772
C        -1.42217630902781   13.52108034101481    0.16424496473730
C        -2.07075377685904   12.39565058631075   -0.31575674878086
C        -1.68778212665371   11.14134193206219    0.12297636284658
C        -1.40641581057614    6.40233237978256    3.12724090167050
C        -0.17486494087595    5.98068785359953    3.61913798521814
C         0.24529765879028    4.68291043855768    3.38693297731432
C        -0.55997496568687    3.80581599456017    2.67847109289147
C        -1.80632941375771    4.21187650227302    2.22922589680092
C        -2.23858052417577    5.50633093532823    2.45780482700770
C        -2.57674839040065    8.15219447731340    5.09501810662582
C        -2.07148349531142    7.28467888965024    6.05524869020420
C        -2.60928839536166    7.28314408865553    7.32987372602872
C        -3.65134359574931    8.13762371258702    7.64911712947963
C        -4.17340045060793    8.98573912311357    6.68508618801552
C        -3.64635663559675    8.98526907889846    5.40719498295306
H         0.79858223635883   10.50371088480239    3.68899200889951
H        -1.95300135426645   10.75749402650576    5.00057331100792
H        -0.60951335887819   11.90218558667586    5.16277043591249
H        -1.38488885616845   11.64913957421911    3.59322564968577
H        -0.94218966696914   10.07069301812638    6.84884676543360
H         0.01394582290032    8.83987702567530    8.71960182816816
H         1.97236907144738    7.37355566960686    8.38741529667072
H         2.99507611508330    7.19442044846631    6.14413685214934
H         2.05393193538302    8.46318719050694    4.25987159630554
H         1.41898079670966    7.12308623654335    2.15831756518048
H         3.83878290995404    6.69977149635242    1.90780859340113
H         5.28843907479346    8.42792939443066    0.90351954666380
H         4.31002785170639   10.55175832571976    0.12475261823073
H         1.90780732950959   10.97900983557156    0.38626392865587
H         0.81475264375710   12.05202286929447    2.22294820741762
H         0.12419780863205   14.26407436500973    1.44667590503788
H        -1.71679273008772   14.50305482380142   -0.17448321541818
H        -2.87217522228983   12.49333062871581   -1.03190710008855
H        -2.18683617361176   10.25141288039770   -0.25829670560098
H         0.44681211217315    6.66896231521805    4.17551634973225
H         1.20870614245765    4.36043179140230    3.75448036560117
H        -0.21651232684676    2.80150774261706    2.48153256314805
H        -2.44075885543874    3.52863628347715    1.68681790693080
H        -3.22118728626369    5.81669928562857    2.12437777593820
H        -1.26287415726653    6.61269117825093    5.81093479228781
H        -2.21375213407640    6.60820830034423    8.07385693696454
H        -4.06750449247891    8.13288713878316    8.64534049961235
H        -4.99846011226276    9.63922879551271    6.92567890927803
H        -4.06826015493065    9.61688326682856    4.63673451404242

