55
CSD_code = OHETAY | q = 0 | S = 0 | Stoichiometry = C18H28CdN2O6 | MND = 6
Cd       -0.91492328158914    6.95768829323477    4.14962945061946
O        -0.02013023995954    6.70542515298209    2.20527193659646
O         0.10200787058147    4.50795860143993    2.47102499237411
O        -0.00778139542819    9.10556278787233    4.08304271184832
H        -0.29321964677593    9.48055182214832    3.24317255965294
H        -0.71050251306511    9.35588706332482    4.75145880460432
N         0.97303423873016    6.31443944867962    5.29577472309046
C         1.44184958543233    7.16732586191325    6.19962762461615
H         0.86729247961102    8.06944325334849    6.35641656279874
C         2.60271362952162    6.93075889257911    6.91471175163550
H         2.94406360366922    7.65427197623887    7.63980421745510
C         3.32804377047390    5.76618542821447    6.69649723249635
C         2.83706342010778    4.86963643491383    5.74140229205604
C         1.66029417735472    5.19789597464965    5.08045175528585
H         1.26606539720867    4.52983001962033    4.32337043458364
C         4.58630081139495    5.48252027843681    7.45009087955706
H         5.42276427277142    5.36882576031513    6.76153028698722
H         4.49217222776081    4.55227402435854    8.00922767108557
H         4.81171762960009    6.28742750081803    8.14443861338281
C         3.54801844435217    3.59170513067526    5.42914459103019
H         4.56274752236403    3.79321929806490    5.08804058480929
H         3.02193801836172    3.04436767371857    4.65200582581744
H         3.61580720384502    2.96369407956784    6.31700056055284
C         0.34234611439427    5.56005455796201    1.84513594405385
C         1.13585401407486    5.46497633289647    0.54426415149189
H         0.59948649001180    5.98547354781113   -0.24475913222219
H         1.28902160989007    4.42471526224243    0.27262063169174
H         2.09691962750685    5.95445869821106    0.68358994738412
O        -1.80931138561666    7.21043287520918    6.09433656821368
O        -1.93307630836168    9.40759095753726    5.82683913038342
O        -1.82175045397048    4.80971999241844    4.21662356093335
H        -1.53523719951350    4.43412758053995    5.05585581169499
H        -1.11983801046271    4.55968882431748    3.54724486973771
N        -2.80252665570774    7.59982539253402    3.00222652365265
C        -3.27020264361329    6.74681435290308    2.09789294938372
H        -2.69526407724161    5.84485086699245    1.94165153625054
C        -4.43039698640099    6.98307193942786    1.38163607453912
H        -4.77079275472767    6.25952350031854    0.65612638937541
C        -5.15634988599894    8.14736173667167    1.59926326265435
C        -4.66664607718332    9.04398783244805    2.55495099996037
C        -3.49034709703539    8.71613739120915    3.21694972749252
H        -3.09692577714191    9.38430164192252    3.97436890145754
C        -6.41398269533868    8.43060778538438    0.84447470342684
H        -7.25113895368431    8.54405424401383    1.53223009140293
H        -6.31963572881872    9.36085685275370    0.28538116885294
H        -6.63847615089242    7.62559800041521    0.14994752345303
C        -5.37857383690537   10.32147341424873    2.86680815444386
H        -6.39348528442863   10.11925975059455    3.20697170084045
H        -4.85351102211081   10.86894974222107    3.64453874234017
H        -5.44595368424337   10.94964360028039    1.97903113025142
C        -2.17259198939974    8.35580622079994    6.45364795692077
C        -2.96612653252335    8.45130872063001    7.75445320526120
H        -2.42969030523309    7.93117527797913    8.54365895756876
H        -3.11951766266872    9.49163674381691    8.02572468390408
H        -3.92711592296161    7.96162160617238    7.61527807025614

