58
CSD_code = OHEWIH | q = 0 | S = 0 | Stoichiometry = C24H25CuN4O4 | MND = 5
Cu       -2.32487668783934   -3.27365830132712   -7.29986453757890
O        -5.93325405877528   -4.13681537789852   -5.72300527832724
O        -2.78850012312823   -2.88374149961194   -9.09454911742324
O        -4.45953941260663   -2.62361322161115  -10.49858295878050
O        -1.81876441674351    1.78580770132668   -6.15836642912700
N        -2.41746185791431   -3.61126243052910   -5.26777134452125
N        -4.23859351525080   -3.48106113707922   -7.08102018172169
N        -0.53354800958176   -2.18677902182950   -7.30370290336721
N        -0.71940622257339   -4.71214983275492   -8.08170223937895
C        -3.64730368141557   -4.33195452395311   -4.94568343950752
C        -4.74881649525745   -3.97510088050626   -5.96331923876381
C        -5.01295293993427   -3.08356078700307   -8.20237197232381
C        -4.03313164108757   -2.84063233755965   -9.38358138326127
C        -5.75774954653309   -1.74039895640925   -7.93000351984744
C        -4.78754019384689   -0.72455374350138   -7.45578740586416
C        -4.49739139550555   -0.60213130894725   -6.08641745255993
C        -3.53077712164715    0.25095744244681   -5.63865416331033
C        -2.75347892229861    1.06120473081773   -6.54979385343675
C        -3.10824852018222    0.93864099093607   -7.94458745371626
C        -4.07917786139335    0.07881193020599   -8.36536840000620
C        -0.41453211569311   -1.00754147076656   -6.70751885805683
C         0.54395806001516   -0.07896281850216   -7.06717101444428
C         1.42048758110037   -0.40934313805124   -8.09070464621352
C         1.30848719651450   -1.64918997191571   -8.69727429648356
C         0.30553069105749   -2.51645355002377   -8.28246303433107
C         0.07881269936043   -3.85000120363167   -8.93771139816285
C        -1.30922119220549   -5.85719065228286   -8.77497248661476
C        -2.30747575503563   -6.53168016855729   -7.87462466321552
C        -3.66906962259644   -6.39763511828667   -8.11063959301528
C        -4.59112947565869   -6.99683868595934   -7.26993562462105
C        -4.15864324882545   -7.73612042754967   -6.18212589041968
C        -2.80150275829484   -7.87768520999334   -5.94014106046888
C        -1.88132644756629   -7.27796593723432   -6.78228976231550
H        -2.45886833576113   -2.66420578585096   -4.90518765807715
H        -1.59383425591936   -4.07149611855556   -4.89926190108088
H        -4.01461738173078   -4.11675627532369   -3.93690684940297
H        -3.46763525136026   -5.40572098689544   -5.02932169030197
H        -5.74421380133383   -3.85082572912726   -8.49174486308417
H        -6.51714012880148   -1.94559587650115   -7.17290859874968
H        -6.22443428153493   -1.44250496568123   -8.87034723478977
H        -5.06429923326564   -1.19975952525699   -5.38414175784867
H        -3.31492828924900    0.34920212017520   -4.58286126427705
H        -2.55960225236455    1.54841636263530   -8.64747732803952
H        -4.30974561952355   -0.00440106769328   -9.41825875584153
H        -1.11982973847338   -0.79540001569127   -5.91742603188127
H         0.57286715824472    0.87732954704137   -6.57219815575794
H         2.17882943577431    0.28881770516093   -8.41133491348153
H         1.97526267614007   -1.94097381960759   -9.49394152154473
H         1.03744079746887   -4.30128104264651   -9.23448992262687
H        -0.51158072797140   -3.65935363254751   -9.84064149751961
H        -0.16382180983577   -5.03820949110067   -7.29423837734319
H        -0.53546255425751   -6.57265243776219   -9.09643857480028
H        -1.82008222803442   -5.47286930442433   -9.65965675242493
H        -4.00382353834889   -5.82703801128774   -8.96339991553104
H        -5.64727011134125   -6.88363996231825   -7.45832608714508
H        -4.87635540945288   -8.20270854556469   -5.52451406615053
H        -2.46016796693555   -8.46008695742056   -5.09626356716896
H        -0.82305014078487   -7.40418726622068   -6.59530711394299

