68
CSD_code = OHIBOX | q = 0 | S = 0 | Stoichiometry = C37H22ClN4O3Re | MND = 6
C        -3.24801675398762   10.74610176176622    8.87105293576905
C        -1.76301754358288   13.09894436360624    8.21161921692491
C        -2.15517706644872   11.18228396557872    6.26386580136327
C         0.81117178593493   14.33794676280180   12.30480640647046
C         0.75646847889212   14.88590093176925   11.03248426420382
H         0.67356980314493   14.27337723662048   10.14825376042284
C         0.83620078949694   16.26183329207140   10.92055267132408
H         0.78803900260277   16.71033908164461    9.94020759697475
C         0.98123358232681   17.07599937043944   12.04026105609197
H         1.03633793212601   18.14636040664202   11.91146257610084
C         1.07252028075001   16.53183471473463   13.30614705274352
H         1.20970810703019   17.15911920314461   14.17360576059100
C         0.99272126725968   15.15261090650721   13.44251763057486
C         1.07882293622747   14.27091080590513   14.57574924846209
C         1.22990571799250   14.48747493970031   15.93803099048140
H         1.32563046127156   15.49064122734048   16.32402379927512
C         1.24650030822146   13.39551043736614   16.78385030057483
H         1.36667126531891   13.54130114083597   17.84668116439657
C         1.09346691806837   12.10466077517112   16.28713207379148
H         1.08859335667037   11.27045110835760   16.97272986857819
C         0.94096067168895   11.86545109743935   14.93342252552291
H         0.79662378478389   10.85978403605087   14.56807596771677
C         0.95725793945216   12.95553224372107   14.07724522563058
C        -0.30456188679822   11.94004370680670   10.83652900223348
H        -0.98116464864050   12.78060503167361   10.75405377831096
C         0.65104458082762   11.91921373855135   11.85338396533076
C         1.45879120379221   10.78310985842111   11.96015352059724
H         2.22684474961829   10.72766936257139   12.71557397775936
C         1.28245382259325    9.75814490587830   11.05801475056874
H         1.90679068800169    8.88250365527277   11.12369602905527
C         0.33150094506642    9.87420315407006   10.04146052501729
C         0.12409162549465    8.86035882105246    9.01079590724227
C         0.85766985273700    7.67397328609024    8.93655708048327
H         1.61901258768147    7.45657857470772    9.66726595928835
C         0.64233105456709    6.79167474122919    7.90187884672385
H         1.24011513247737    5.89908236754248    7.80400909833010
C        -0.33901222051886    7.09424371642637    6.95312957982289
C        -1.05616531321635    8.27973586931007    7.12008548716345
H        -1.85605071918272    8.52376243623497    6.43324216469155
C        -0.69659531094343    4.88903990211536    5.89491959955302
C        -0.66416454672588    4.01834669201376    6.97309664212275
H        -0.52858806649106    4.37258450173993    7.98397183175927
C        -0.83496245652394    2.66939444104735    6.71972936511093
H        -0.80884383371024    1.97183942395178    7.54357728162962
C        -1.04537137353804    2.19377087309548    5.42898841826559
H        -1.17038848998445    1.13321588702268    5.27107709614521
C        -1.11217047242365    3.06085665780071    4.35578343240597
H        -1.29818727794283    2.69582322752860    3.35743230205842
C        -0.94309332301049    4.41869289480700    4.58667369628182
C        -0.97774965389195    5.57442332077863    3.73106303855092
C        -1.15193969254053    5.73645145768772    2.36335301044915
H        -1.31889541624977    4.87939468665390    1.72899851230945
C        -1.09784158435531    7.01238205352248    1.83800713329743
H        -1.23509714818715    7.16199221315595    0.77778167403916
C        -0.85059247191854    8.11217264477402    2.65472288517809
H        -0.79255945375560    9.09674367142364    2.21674502993548
C        -0.67213325146524    7.97417940060791    4.01899849640540
H        -0.45276966139235    8.83748052307940    4.62770132864315
C        -0.76197646994582    6.69902147825218    4.55562883615576
Cl        0.71128847705952   11.51296831343920    7.31581194989471
N         0.79175469456539   13.00441357845377   12.70067860647558
N        -0.44866456140686   10.96870704420933    9.94955448090646
N        -0.82339358405730    9.14291358820571    8.09569456925613
N        -0.59122558170674    6.27220083737140    5.86866546758220
O        -4.25922952092796   10.47405031581105    9.34355163865858
O        -1.78879541411034   14.24067607997264    8.29155374390651
O        -2.41982321311876   11.15001414452913    5.15053934098996
Re       -1.51427582107487   11.16847711188921    8.10479302542162

