82
CSD_code = OHIBUC | q = 0 | S = 0 | Stoichiometry = C39H35O6PW | MND = 6
W         2.50202972496822    1.22964624236963    3.71050403076452
P         1.29377185507094    3.28814990961385    2.93101741801354
O         1.52119739124685    3.02802872303862    0.66012203286186
O         5.38088356318933    1.79632699712894    2.60306639091211
O         3.16061540667236    2.50880063663788    6.50681940538513
O        -0.24724643551748    0.03824834141283    4.64071267389499
O         2.14723396095349   -0.60698973787446    1.20543942853391
O         3.83680022288775   -1.38389372547339    4.77205590177461
C         1.58989391610806    4.95946234212154    2.94827103931373
C         0.73351881424368    6.07303758283766    2.56889757281342
C        -0.49328272376427    6.13048580331119    1.92174671188845
C        -1.07601392916419    7.36501895905558    1.68813862920645
C        -0.45260241696803    8.54288719285501    2.07785211738895
C         0.78618379853626    8.50781071316282    2.69419388844936
C         1.37976028558553    7.28037614998484    2.93295435818628
C         2.66149480782343    6.95390141229116    3.51709711546479
C         3.66966647931633    7.75935848997993    4.01928748047764
C         4.81951385584220    7.16201476040724    4.50661705795568
C         4.96003684483680    5.77948206081844    4.49240125621544
C         3.95640617534194    4.96532633974872    3.99795308874260
C         2.79753070061851    5.54736193245174    3.50703964159335
C        -0.47309558469720    3.04836732736790    2.52624597696142
C        -1.56538592821255    3.25856032183770    3.38982172957475
C        -2.84104053255542    3.06138394968858    2.86680193522223
C        -3.10954988762844    2.63015783607991    1.57617760364855
C        -2.01848651122254    2.37418047784402    0.76350737955340
C        -0.73283734948681    2.58297656574946    1.23007353098911
C        -1.54544032425538    3.70154791113743    4.85433076832206
C        -2.34601740986247    2.68403160233792    5.68900451965290
C        -2.19588271545032    5.09118410499069    4.95070125823695
C        -0.16737326328991    3.79908257789712    5.50468590017249
C        -4.54854201304292    2.46184989595468    1.11976778509382
C        -5.23768682928065    1.42026876438790    2.01206579644348
C        -5.27007810242177    3.81184912914321    1.23642282935775
C        -4.64871025824761    1.98984116332141   -0.33310353311489
C         0.39526852890818    2.27536642259803    0.28058886354982
C         2.74983230344513    2.75415585799823    0.10465044569803
C         2.99125414276957    1.73592478886318   -0.80792271454208
C         4.27615536733203    1.54251751084538   -1.28968788109336
C         5.31561820089987    2.35621877959954   -0.87953035421337
C         5.06695426932478    3.38439429068012    0.01538737172958
C         3.79266141454276    3.58666176750488    0.50616655412055
C         4.31261360970645    1.71323124588982    2.99733140188625
C         2.89660750458171    2.11090905496442    5.47104368694670
C         0.73522822837540    0.54168366109111    4.34151101679357
C         2.22017437035345    0.16356553319392    2.05044034282025
C         3.35464045411135   -0.41781761380592    4.39425887891381
H        -0.99448472203699    5.23625026975891    1.58929660266452
H        -2.03418724772668    7.40995925889993    1.19031668703427
H        -0.93336244141984    9.49119309037479    1.88677874047497
H         1.28488765470346    9.42206159262424    2.98059779207933
H         3.56160779286957    8.83405338187072    4.02933086050163
H         5.61760540605369    7.77418240256496    4.90045311671224
H         5.86704329964429    5.33240680231827    4.87258179171553
H         4.08079516502582    3.89048561639926    3.98693187633638
H        -3.68367189503800    3.26216845850337    3.50603911135591
H        -2.14240797938145    2.02022217704433   -0.24706046103396
H        -2.29531671320903    2.95238511458220    6.74181461639391
H        -1.92737490415405    1.68771174146527    5.56939215885103
H        -3.39479865822299    2.64543039578337    5.41228786630181
H        -2.18641118191163    5.43128582675172    5.98371234094084
H        -1.64136105026298    5.80633630850947    4.34656738412406
H        -3.22607584361153    5.08319544499922    4.60613629050420
H        -0.29095356602862    3.96455707572432    6.57429497671997
H         0.40594933444746    4.63356809098444    5.11235455710315
H         0.39378169472706    2.87266966784499    5.38045631724370
H        -5.26031675326898    1.73744643394809    3.05074789933591
H        -4.71009512955908    0.47048795503598    1.95784192352245
H        -6.26239597146232    1.26563754938386    1.68181790734804
H        -5.29411418164159    4.16425601757711    2.26371699284016
H        -4.76557581376335    4.56171813404765    0.63078665245469
H        -6.29550228297475    3.71796845437255    0.88621077248717
H        -4.18971395302551    2.70656269301473   -1.01020900597285
H        -4.17503519647544    1.01961730110594   -0.46323410580256
H        -5.69603992391112    1.89065388614045   -0.60993587800842
H         0.60228916477233    1.19689691690819    0.32241448803268
H         0.10746209463513    2.53294277642020   -0.74813049054489
H         2.19963148778254    1.09036726462418   -1.15401407328989
H         4.45773066025450    0.74419632803693   -1.99350418840148
H         6.31284400434975    2.19369604965355   -1.25782581630837
H         5.86842369540028    4.03058167452402    0.33889316853805
H         3.58546997198976    4.38591379481734    1.20011279509494

