42
CSD_code = OHIDIU | q = 1 | S = 0 | Stoichiometry = C16H22ClN2Ru(1+) | MND = 9
Ru        2.21316793074121    4.50283906606226    0.56598143114970
Cl        0.07525132807448    4.97478169111874   -0.22884513462277
N         2.76565536522986    5.08584581316372   -1.43444985756580
C         2.58595955367916    6.53878201264997   -1.61455551034711
C         3.05311849657738    7.22911204238795   -0.33553105372717
N         2.28837466700629    6.64009628989238    0.77463918411377
C         1.34173901228938    2.60913415924900    1.56260584450773
C         2.31005372533996    2.23762867344515    0.60304221898041
C         3.63409334479813    2.74052893360446    0.67689883356925
C         4.00839858847148    3.62557551945622    1.70366553085803
C         3.02363332034561    4.05951066085149    2.61834835600809
C         1.70485156549988    3.55669151262571    2.55260873363563
C        -0.00208070945784    1.96356494468342    1.58176324740472
C         0.04548271916317    0.71601698252003    2.49341955802300
C        -1.29544738642373    0.03590826278552    2.49094092227333
C        -1.58359170802380   -0.94672782374094    1.55311527187711
C        -2.82587871904495   -1.55523040030760    1.53289980685494
C        -3.79572988520800   -1.18209326989182    2.44770450321475
C        -3.51779598703168   -0.20021193218904    3.38334993490813
C        -2.27495320046872    0.40721349548640    3.40240246769342
H         2.16342257620164    4.59428460249498   -2.10069086232010
H         3.73461654973800    4.83022970816288   -1.64208947495721
H         3.13929202924118    6.90833646924535   -2.48299512137078
H         1.51686505788208    6.72896516223610   -1.75538519154593
H         2.89539092296393    8.31031690221815   -0.40639184183154
H         4.11832479302487    7.03699318782240   -0.16983748529044
H         2.63798371543764    6.98985502656562    1.66884641437419
H         1.30439823786417    6.93222999846642    0.68756871627589
H         2.06441274970543    1.47937571814634   -0.13318395181389
H         4.38580563803799    2.36149626555388   -0.00865055643309
H         5.04039904801320    3.92902719602530    1.82196873507859
H         3.30634705483468    4.70732513249838    3.44263556204429
H         0.98735602640913    3.82269211351793    3.32147573040944
H        -0.75680358636452    2.65310786059086    1.96352740524210
H        -0.29690725070608    1.65672649236220    0.57674889043498
H         0.31191804971491    1.02115025877692    3.50743451872021
H         0.81410754773274    0.03247657877396    2.12638960558166
H        -0.82769127824610   -1.24509234025661    0.84001143670833
H        -3.03627869888385   -2.32231231800951    0.80310510795821
H        -4.76466797927981   -1.65682888317011    2.43290998023785
H        -4.26949875704780    0.09245787862562    4.10064831504922
H        -2.06109446761510    1.17002035564803    4.13794977855361

