42
CSD_code = OHIDEQ | q = 1 | S = 0 | Stoichiometry = C16H22ClN2Ru(1+) | MND = 9
Ru       -0.06291135101812    2.31402985926499    5.62007651438686
Cl       -0.46076200420906    0.06150950922940    5.09023803922063
C         0.96084816837874    5.43306528221436    4.29337791914382
C         1.19085452136401    4.23563209956019    5.16008789078157
C         0.82629157174614    4.23651961588634    6.51827831016651
C         1.15828992851570    3.14010062694821    7.35529870115405
C         1.86467516525200    2.02611428109396    6.86640090212836
C         2.19289529228556    2.01424551806804    5.48382515732398
C         1.86883171800486    3.09357215256801    4.64674033438940
C         2.30123086595956    0.90488264143624    7.77799236981945
C         1.09952515244393    0.27888310996513    8.49059802983871
C         3.33894289966434    1.41781224092658    8.78102743494311
N        -1.87959854894872    2.05458493377292    6.69782725943791
C        -2.93770840264500    2.84694822831435    6.05480709284583
C        -2.71617424200985    2.78485849425271    4.56543361080733
N        -1.43500869387314    2.61287525330558    4.19966951023028
C        -1.14390839396649    2.51832305548125    2.90324408377416
C        -2.10466470914984    2.62377128871548    1.91452827810001
C        -3.42716327526644    2.82059452506911    2.28285311732643
C        -3.73439320292842    2.89454531732027    3.63313476038604
H         0.72613674330272    5.14590477907018    3.27025300013718
H         1.87149139849392    6.03369546473590    4.26860127483593
H         0.15791971364050    6.05599649461932    4.68052158650683
H         0.37525565212336    5.12240887255518    6.95070219636992
H         0.94078373345542    3.21122330083466    8.41572250971349
H         2.76622393195225    1.18328696274128    5.08454889511055
H         2.22718480796768    3.10627471889949    3.62236160840305
H         2.76833238194104    0.12924799386705    7.16298298949136
H         1.42014423595573   -0.59501054306394    9.05005273963421
H         0.64486122266305    0.97780388629190    9.18940741225254
H         0.35645068359274   -0.03711754797762    7.75832440698466
H         3.69887095089088    0.59209605206438    9.38797126592220
H         2.90900054818437    2.16585180414923    9.44299629840710
H         4.18818333396911    1.85965320084551    8.26482492386450
H        -1.85143783853251    2.24005976049636    7.70197100493163
H        -2.07845600412078    1.04863860223288    6.57135137266572
H        -2.85161828585615    3.88951473694604    6.38701323573873
H        -3.93907196601651    2.48360807785759    6.31231577440907
H        -0.10730310107196    2.32615099782854    2.65518872513878
H        -1.82097422410380    2.53858170908909    0.87854970130750
H        -4.20317284659247    2.89800750279645    1.53874237355705
H        -4.75189753143837    3.02835513972173    3.96355738841608

