25
CSD_code = OHIJIA | q = 0 | S = 0 | Stoichiometry = C8H8NiS8 | MND = 4
Ni        3.14700244286985   -0.00051838940429    6.67070101323116
S         2.25642093688099    1.94481828000483    6.83715551392411
C         1.87480242306669    2.12405707878455    8.49800391448331
S         1.15946898301109    3.67765628600561    8.87946587933926
C         1.26988144437813    3.70687453429197   10.70256150493698
H         2.31543584642825    3.82900397752112   10.98587860934805
H         0.70655839485923    4.59135185510359   10.99881145424147
C         0.67695192801042    2.45573580083509   11.30489176468796
H        -0.28962703618354    2.21871310072912   10.85989594622716
H         0.56650592745991    2.55284589789201   12.38465838075389
S         1.78921516671907    1.02360007915348   11.08221381514929
C         2.13412708526637    1.08849051179522    9.36546997080832
S         2.88996250185102   -0.33188257938653    8.77577646197782
S         4.03844749478596   -1.94552400348432    6.50433739294600
C         4.42069877259028   -2.12440206180292    4.84359416240764
S         5.13673726217074   -3.67767392997858    4.46213523633759
C         5.02689321077286   -3.70666669847109    2.63899446666910
H         3.98146044800422   -3.82907621673093    2.35535380470192
H         5.59058046392162   -4.59093238317797    2.34278858187865
C         5.61960436828576   -2.45524265511528    2.03702522978813
H         6.58597181088037   -2.21797477081132    2.48234654655570
H         5.73041714456581   -2.55215713991175    0.95728197251423
S         4.50680578371148   -1.02352091119669    2.25956028753971
C         4.16133052064859   -1.08880731290269    3.97617229613104
S         3.40484667504482    0.33123165025780    4.56582579342153

