145
CSD_code = OHIKAR | q = 0 | S = 0 | Stoichiometry = C66H72BN2OP2Rh | MND = 4
Rh        4.05605089791287    2.22034779276859    5.81129681519383
P         3.50582611498455    0.15219144483451    6.66232360318953
P         5.23180713443659    1.04695238083457    4.20786142787167
N         3.94454243859201    4.68527738099027    4.01937387330913
N         5.27304445109383    4.91781795296333    5.73269288576909
O         2.93636518329380    3.08494553119254    8.43288509204349
B         5.19638215363041   -1.76600676455659    5.25646194329800
C         5.23820815588314   -2.67992638270399    3.91839482278888
C         4.11456724499552   -3.24671725360698    3.31998443397519
H         3.13544898374498   -3.07821805989204    3.74769741839779
C         4.19964047296437   -4.03062895129245    2.18227144747569
H         3.30049938943778   -4.44863581519495    1.74699992368701
C         5.42807964635001   -4.28165083987896    1.59893303677578
H         5.49953171688536   -4.88817067962124    0.70596338266759
C         6.56785254393722   -3.75877540483027    2.18615706251003
H         7.53944383769975   -3.96403691948855    1.75395951316023
C         6.46583834885107   -2.98254282700870    3.32557281229903
H         7.37468913776250   -2.60988464572102    3.78121104053298
C         5.85192124038171   -2.64453955026654    6.45494378668085
C         6.98917268694362   -2.29920238334519    7.18059369175090
H         7.52386876817334   -1.38780547843850    6.94971686700386
C         7.47528980709559   -3.08815565620086    8.20892526285974
H         8.35701654172603   -2.77755602378145    8.75563095797995
C         6.83966153658685   -4.26970875444855    8.54146701361576
H         7.21447894224607   -4.88751932536079    9.34662668318723
C         5.72318903951010   -4.65633148578925    7.81963959560384
H         5.22420608010702   -5.58775948836697    8.05590798440258
C         5.24911066320991   -3.85617484683867    6.79806669904189
H         4.38401751028254   -4.18497023877924    6.23647685341059
C         3.64082889141766   -1.36229795603408    5.67617547565445
H         3.14157275442881   -2.15567477460126    6.24177496068045
H         3.03981931158436   -1.17557296322481    4.78116282869761
C         6.05202222757163   -0.36164726636876    5.03040536719723
H         7.01170365508743   -0.54716073284769    4.54570802348404
H         6.27243418810188    0.05624371478296    6.02187299582899
C         4.39948620799268   -0.24576426080620    8.19840299709544
C         4.18625813815542   -1.44374113911799    8.87196710521742
H         3.45172338280411   -2.14474442519625    8.50476936255200
C         4.91218646428294   -1.73791414735702   10.00948592004127
H         4.75071527391132   -2.67428489921278   10.52229887350794
C         5.85241077285564   -0.83913236895943   10.48804568562579
H         6.42235720424418   -1.07573049000698   11.37464670824741
C         6.05893298636848    0.36163265473146    9.83161081176107
H         6.78332101203740    1.06981877342344   10.20879555396222
C         5.33503345550608    0.65507429929333    8.68996945065911
H         5.48579842173289    1.59650899190671    8.16647695185384
C         1.76846823583044    0.11274585762645    7.23731117114043
C         1.42423124539533    0.33418043393015    8.56716907257719
H         2.20071410346523    0.49203696069454    9.30287195739325
C         0.09620096031861    0.34943571099841    8.95311556077343
H        -0.15807542708174    0.51757393522501    9.98981308981626
C        -0.90544688205777    0.15096540026961    8.01770310635819
H        -1.94173918349076    0.16222260451491    8.32253109509875
C        -0.57290323917568   -0.06275217755951    6.69022910494397
H        -1.35072855972344   -0.21787981439970    5.95602728586091
C         0.75377750851214   -0.07864484154186    6.30240256385825
H         1.00849629427639   -0.24397779181918    5.26432931542750
C         4.01095516543822    0.41568066324490    2.98788887654907
C         4.26403955066934   -0.45035922305999    1.93148458969070
H         5.25473108233522   -0.83127659626148    1.75244562374074
C         3.23338912846255   -0.85034535427130    1.09868344221253
H         3.44331038655134   -1.52986484292996    0.28608772520423
C         1.94116071929586   -0.40263076674870    1.31198327311072
H         1.14053353246990   -0.72794690354311    0.66365070817109
C         1.67658060373278    0.45769903326851    2.36504262528811
H         0.66968183852492    0.80662829174929    2.54490210936744
C         2.70754249863946    0.86682047429837    3.18760737162620
H         2.50982241228535    1.54522835639070    4.02350943214516
C         6.57322330395660    1.63931359512094    3.09233519605687
C         6.89543527690204    2.98822091300439    3.02191608788634
H         6.34817386513216    3.68949254349214    3.63155462917903
C         7.91349172973430    3.44113830114473    2.20096879007911
H         8.15069660611608    4.49580370656958    2.16357871886092
C         8.62926926675640    2.54313578816993    1.43011298534938
H         9.42311454486487    2.89077780603371    0.78523607650829
C         8.32960522007065    1.19222234731973    1.50232717750214
H         8.89342112468251    0.48317033877466    0.91359694160890
C         7.31905061097469    0.74239247477189    2.33119799204824
H         7.12546269212986   -0.31766903665065    2.39538287661329
C         3.31985801706123    2.84132347529470    7.37609145358817
C         4.42299339800095    4.07917397082983    5.11870687805626
C         4.38980256562611    6.07635801661170    3.91533156682909
H         3.55382672431344    6.74979589368839    4.14688367754148
H         4.74303105639253    6.30449192574331    2.91014737547350
C         5.50216760492381    6.13752096182849    4.95676408838852
H         6.49069250536781    6.08930184650003    4.48256833922668
H         5.47067536697194    7.02937099001205    5.57933063221527
C         5.70930815113526    4.80962827433920    7.09071904949181
C         5.04769719678344    5.57538494730609    8.06421556432700
C         5.47164863269270    5.48495778854183    9.38362518427331
H         4.97370831968447    6.06649774189542   10.14308901211939
C         6.51942685354524    4.66306263742393    9.74104088155949
H         6.83232124962504    4.60264291937812   10.77263914723510
C         7.17466369574178    3.92721797417615    8.77405641348235
H         8.00372076801878    3.30237559163574    9.06162673819890
C         6.78891602125765    3.98252515383310    7.44140847212909
C         2.68446318571562    6.30822968995602    8.61583822178104
H         2.34970104588484    5.27759819060511    8.55989485288930
H         1.87673818776700    6.95472284468442    8.27798176118118
H         2.88841831986691    6.54355455337286    9.65650482872033
C         3.91912967183037    6.53267696574893    7.73956751618041
H         3.60389581990076    6.38560889449754    6.70335896352989
C         4.40119543329318    7.97902116877831    7.91181318231283
H         4.60530685831568    8.18486424477431    8.95953429967076
H         3.63672679927856    8.67372478846006    7.56974217952669
H         5.31712234587475    8.16942695970552    7.35479842385090
C         8.57839280523512    4.15616234356530    5.72941657033050
H         8.10108223663684    5.04431062366416    5.32617480287362
H         9.09026416530750    3.64102140316725    4.91983762339568
H         9.31869002555578    4.47804968982746    6.45991943205757
C         7.56752777408983    3.21632318938867    6.39518829311816
H         6.85437772280778    2.85187465687034    5.64453231162183
C         8.32194183674414    1.99805436388998    6.92704016549626
H         9.18127319997883    2.29272094109635    7.52597253801721
H         8.69138326693301    1.41856158979005    6.08338110549810
H         7.67919518960727    1.35780864708323    7.52407613831771
C         2.83377017146847    4.26981657846956    3.22649557033276
C         1.55276423917956    4.23387292010207    3.79722421006078
C         0.47735681924798    3.87180079171807    2.99587055397966
H        -0.51357961653797    3.84118487736688    3.42141877434742
C         0.64918024556048    3.56811220584588    1.66126010728963
H        -0.19896584211334    3.29037933047370    1.05339104602273
C         1.90751652918638    3.64423031653982    1.10157732015033
H         2.03301322160647    3.43027676328588    0.05234360740676
C         3.01265735583412    3.99896947363712    1.86304829676949
C         4.33190924069347    5.34649287240268    0.23442673448200
H         3.62239982957799    5.19321884425531   -0.57487384300444
H         5.31828352999579    5.49556790148353   -0.19956940120716
H         4.04289861676914    6.25359565894150    0.76282605797540
C         4.34841265913168    4.13265343451949    1.17099471694562
H         5.12513191038823    4.27888916683002    1.92212613978249
C         4.71594517719262    2.87435000605104    0.38382092212037
H         4.64604937659440    1.99503032719100    1.01801584085096
H         5.73812205854160    2.95408259750917    0.01989898043619
H         4.06083594027935    2.73309607871092   -0.47128794593418
C         0.47823596024368    5.95209136417219    5.24468152256439
H         1.01686419939688    6.74142980062533    4.72255053153434
H         0.30823423529763    6.26860502666048    6.27111127529904
H        -0.48705841896920    5.82661126563389    4.76087454354782
C         1.27259162971581    4.64242334283309    5.22564481845654
H         2.21672309128663    4.80974184014361    5.75139452310943
C         0.52355344462431    3.54436761784867    5.98241970250638
H        -0.46709514618611    3.37591530802241    5.56929795948163
H         0.40973844986920    3.81951680203752    7.02856882304017
H         1.08118584084216    2.60796572265268    5.93462935314160

