68
CSD_code = OHIKOG | q = 1 | S = 0 | Stoichiometry = C29H31N4NiO3(1+) | MND = 6
Ni        6.75461722991785    8.40230187244745   14.33598075605562
N         4.65910810795017    8.75396847649030   14.52550742558573
N         6.75187875056637    9.89932602781485   13.14373485400306
N         8.80338257777719    8.46713916698655   13.96496914668692
N         5.99869150321184    7.27551906873046   12.41670969512637
C         3.66271644015268    7.96685089163702   14.94502669836526
C         2.36918093406037    8.12367328769481   14.44130177686591
H         1.58684910314977    7.46694375501840   14.78598334255897
C         2.09597958445941    9.11370328110733   13.52121395692233
H         1.10348206309176    9.23731741415932   13.11709155861482
C         3.12285663021975    9.96865354195175   13.14719169523960
H         2.94761284936657   10.78377161133195   12.46388045435160
C         4.38202624932545    9.75566453615377   13.67579204480498
C         9.12735063172783    9.72222851635146   13.61944389166684
C        10.43586575370762   10.13373210059710   13.44570242374780
H        10.65301226853561   11.15123459812335   13.16239280094387
C        11.45253553654068    9.21199119273852   13.65294665322912
H        12.48583907912818    9.50301165441623   13.54819548134074
C        11.11114755696891    7.91331972955434   13.96660027864633
H        11.87106835695274    7.16235126186996   14.10862442759418
C         9.76885725526809    7.55376289093099   14.09947617738132
C         5.86183631870460    8.26607917450851   11.52788199017924
C         4.98326276137014    8.20384719034196   10.46227033062838
H         4.89879171580524    9.02400485351416    9.76717517523203
C         4.21750874101143    7.05515139120253   10.30679914716918
H         3.51553831546448    6.97326766044093    9.49154365477749
C         4.38328467450615    6.02132137310721   11.20462761970708
H         3.82257152030464    5.10591994502619   11.10300649480618
C         5.29266679346472    6.15855802424236   12.25576961641518
C         5.53412157135227   10.67873767879738   13.39197613481842
H         5.30999658553899   11.35124834044082   12.55446895792265
H         5.68164830558672   11.29031011148445   14.28898538332605
C         7.96779818690890   10.66755222522678   13.43780148458494
H         7.82031692401638   11.22075878901062   14.37126475971106
H         8.17883412424709   11.39917413672497   12.64568744627695
C         6.77974721223863    9.44101928750319   11.74535769234929
H         7.79624817147643    9.10722437383424   11.51247333771891
H         6.52447680581809   10.26456761543552   11.06596906089480
C         9.39942137282943    6.13713723486216   14.35232404108142
H         8.41818551021866    5.92993356982620   13.93076050732614
H         9.34963388874444    5.94401629734383   15.42398131798567
H        10.14195443817011    5.46843648747080   13.92527767131167
C         3.92570908028086    6.95231511614826   15.99840927911879
H         4.67461429402873    6.23636251205915   15.67073205224143
H         3.01519262395001    6.42568071549848   16.26747080957621
H         4.32905198975030    7.44200869545727   16.88358490057915
C         5.52612071629435    5.03570927767312   13.20660867681938
H         6.06962534775536    5.38993705184000   14.07784393639995
H         6.11890501077181    4.26459479253943   12.71527127627814
H         4.58509828102359    4.58383125609802   13.50979572770864
O         7.02866107529983    9.40899498367979   16.44061862778605
H         7.19317802988223   10.25985690924154   16.86041064251686
O         6.82833672741005    6.99346051025714   15.45040916577606
O         7.26004839283300    6.02109450262863   17.36502126311758
C         7.19640680387114    7.01359698146812   16.67187378689852
C         7.58104388654659    8.39897326078295   17.27772348595532
H         7.12389078208305    8.44116803115196   18.27663674853648
C         9.08652583446028    8.47646191322797   17.40624976956294
C         9.76407921977210    7.46684187534104   18.08373631530905
H         9.20180417524100    6.65121405108120   18.51089328472002
C        11.14126793800702    7.50263224612992   18.19413481116939
H        11.65501825740199    6.71288639761071   18.71997707012970
C        11.86060875035323    8.55025873938123   17.64121723025454
H        12.93532153328722    8.58049241825652   17.73312750229528
C        11.19163238952866    9.56431188578709   16.98108141182096
H        11.74018637384763   10.39469978369200   16.56038860268863
C         9.81231611989087    9.52798676433940   16.86313079756927
H         9.31355396657480   10.33669869217752   16.34558546121728

