26
CSD_code = OHIMOH | q = -1 | S = 0 | Stoichiometry = C8H14Cl3Pt(1-) | MND = 5
Pt       -0.46455371478494   10.42976848204366    3.46363495139313
Cl       -1.09770906119717   11.12602657102324    1.41926997976233
Cl       -2.18757960116298   11.69877044947894    4.37278901043709
Cl        1.20602831771970    9.19878364733366    2.42205873378853
C         0.46434174161445   10.39733675618854    5.41379450078324
H         0.06336744327787   11.27370734375436    5.92622246958108
C        -0.37789495421287    9.29478972198446    5.28624096053626
H        -1.38141804059402    9.38243524293682    5.70777809421820
C         0.12447824870488    7.87916991541748    5.21297635872064
H         1.09982119603005    7.84804548259625    4.73242386856396
H        -0.55680926031196    7.27044235672737    4.61277932405830
C         0.20457990934592    7.27652514801012    6.62242015157270
H        -0.80864490193455    7.09262966379613    6.99133343244037
H         0.71431003723601    6.31106523977994    6.56116671745936
C         0.92181384237870    8.16585813889729    7.63961405032679
H         0.33906821811148    9.07522243774964    7.78827077591508
H         0.93339347646109    7.63066213024757    8.59416454787441
C         2.35873830992312    8.54421561868613    7.25229313733168
H         2.71112338960080    7.88917607435126    6.45449231919974
H         3.01189361685902    8.37960241685377    8.11493084529600
C         2.53294201496059   10.00108036596442    6.81598068825100
H         3.60438128468405   10.22235231999752    6.80163038316351
H         2.07253450524824   10.65808214606216    7.55920618631124
C         1.97014928819240   10.32580838744599    5.42516618121178
H         2.36352501597483   11.29947255681388    5.11893658042197
H         2.32771967787519    9.58767138585936    4.70802575138161

