42
CSD_code = OHIPUS | q = 0 | S = 0 | Stoichiometry = C16H18Cl2MoN2O3 | MND = 6
Mo        6.49717881642738   11.32908630454389   13.54581338004333
Cl        4.97693548164829   12.78030268803898   12.59072500227569
Cl        8.49898051739995   10.13994985040847   13.35337544945415
N         6.83022125533190   12.17321345864435   15.05257644790609
C         6.48052146139246   12.47441684510792   16.30187386349333
C         7.32819814149495   13.07321266214304   17.24336195828027
H         8.34203228368890   13.30032027830053   16.94673996052710
C         6.88613610935952   13.34472774201862   18.52194939855907
H         7.55847312782655   13.79896543349328   19.23470930624128
C         5.58582403244933   13.04529707377449   18.89151157486805
H         5.23866974106048   13.26682685723559   19.88912897652102
C         4.71955848473914   12.46125719041652   17.97801360674693
H         3.70216705846998   12.24296827110269   18.26410248535250
C         5.14801048427120   12.16052154214988   16.70042568706629
O         4.30712727709655   11.63627256171242   15.73647864674207
N         5.41586401944807   10.00020510841389   13.94557617744682
C         4.54698849452936    9.44815833846988   14.79042437407530
C         3.97717128563597   10.29421489321633   15.78624742610732
C         3.07213863619934    9.78122601757230   16.69399947206240
H         2.63107881780534   10.43182326820035   17.43327759011815
C         2.72624966608402    8.43767849257205   16.65957801331745
H         2.02389840526540    8.04940291167649   17.38118787635565
C         3.27684142190039    7.60291146789118   15.70192157767097
H         3.00519602971298    6.55794629829867   15.67677465998279
C         4.16808333251931    8.09919892081325   14.77280320535146
H         4.60743269307730    7.45456027977391   14.02533797058273
C         7.98779162076947   14.26420590006838   12.62136631045234
H         8.76832765771763   14.81921576434014   12.08726305826353
H         8.21344872153600   14.24195641561183   13.68700325146396
H         7.01630634658492   14.74637750769385   12.46068007004895
O         7.96390004370579   12.91909497929321   12.18417220712673
C         7.69827114211264   12.80090169409259   10.79981502021271
H         8.48899966446205   13.31152322302719   10.22935860037130
H         6.72224983581921   13.25448186262584   10.56368546827148
C         7.67886800140635   11.32280152465479   10.43021399405326
H         7.57687131986799   11.21858802012829    9.33915265593609
H         8.61562737359969   10.84586951353706   10.75947372183309
O         6.57384478305138   10.71121957700087   11.06778252078338
C         6.47880000987743    9.32796847062967   10.78602757303825
H         6.38143147201567    9.17009480337887    9.70534215186572
H         5.58378568678977    8.96902249918068   11.29321776216612
H         7.35819924583996    8.79041348874416   11.15953154698459

