40
CSD_code = OHISOO | q = 1 | S = 0 | Stoichiometry = C12H18N6O3Re(1+) | MND = 6
Re       12.93291751651019    5.50851590563737    1.91310686728637
O        15.89946235291871    6.17097960626350    2.53873442322164
C        14.81104322987782    5.91458107845661    2.29933665018832
N        12.33699516887232    4.90638422081342    4.98020355416339
H        12.44076813425967    3.91935490587469    4.81803474516187
N        12.46853589802505    7.01650695506900    4.64493963800668
H        12.58868664850939    7.89893825376404    4.17640687635690
C        12.52609446216446    5.83679780270625    4.04103301833881
C        12.28850948645573    6.95098112298357    6.08923370996599
H        11.36499242804594    7.45771485722931    6.38190121160880
H        13.12452862790318    7.43232500975031    6.60167069718419
C        12.23496481574955    5.43680646164664    6.33539255594515
H        13.06652044459671    5.08381639261658    6.95094027795583
H        11.29919092588995    5.11774929898090    6.80194775903373
O        12.31226751769043    8.47539020522994    1.24720370656299
O        13.59669289840832    4.88277859046731   -1.05313505578592
C        12.54971384164243    7.38689728994582    1.50535208802671
C        13.33966654957710    5.12214093693735    0.03517591438089
N         9.86713746109361    4.91020387550225    2.51841589654776
N        12.32714086541617    2.44251153270134    2.51093743200184
H        10.03160155821678    5.00760470471554    3.50572296044246
H        11.33980030036195    2.60722914407944    2.41439223959848
N        10.19783386039898    5.05433842761900    0.40837772069284
N        14.43718233241498    2.77342410838106    2.36749092941646
H        10.66461837519854    5.17888197014839   -0.47437676049679
H        15.31991136462522    3.24033136443550    2.24323081731837
C        10.80431725001743    5.10454320325476    1.58704308497104
C        13.25848710161496    3.38006382459161    2.31869570790586
C         8.75363599108199    4.87443034699687    0.47602566549309
C        14.36949661385778    1.32883433213805    2.54417224915983
H         8.45952902058690    3.95390110256456   -0.03528298693769
H        14.88132255137594    1.03262167642909    3.46372843572514
H         8.24051533983116    5.71336344053146    0.00052952815614
H        14.84446645297637    0.81756333483044    1.70379628814021
C         8.51072694478100    4.81234936678781    1.99041431844384
C        12.85511589283145    1.08593359481822    2.60644930882178
H         7.89674916929999    5.64242848560502    2.34959502556924
H        12.49560588869609    0.47326800239001    1.77555498062921
H         8.04402995918498    3.87517873218900    2.30510314269603
H        12.54072475904067    0.61783653491758    3.54300537810369

