87
CSD_code = OHITOP | q = 0 | S = 0 | Stoichiometry = C42H35BrN5O3Re | MND = 6
C         4.47041309168387    5.46448366980982    6.24999588857716
C         4.72448177643339    5.13859930854322    3.43713979707363
C         3.54777594813616    3.12361946119499    4.93009691179803
C         8.00703224810634    4.25067298562300    6.05959211626751
C         7.73454957668588    5.90897086031006    4.49340998918602
H         7.06221343626393    6.44176836079732    3.83308084524488
C         9.08424709303759    6.24905981670113    4.54034118780732
H         9.44999252993209    7.04528667212951    3.91223619814577
C         9.92585317049487    5.55583617364640    5.38012382145812
H        10.98031394719219    5.76851327697150    5.45154113355720
C         9.38645869826346    4.53235547114946    6.16451526314614
C        10.14193486733077    3.73085945834591    7.06437745597654
C         9.53756285255893    2.71102963154886    7.80705134333661
C         8.15872836307878    2.40558291602338    7.72253122654392
C         7.39605522761279    3.19989479925755    6.83082036275241
C         5.47987942088498    2.03659318625358    7.33878871468908
H         4.41902042708149    1.90370338177240    7.17158997658543
C         6.15503923860374    1.21067889907835    8.23286704402508
H         5.61232160775967    0.43833205128535    8.75341820615318
C         7.50502406074252    1.38878244946335    8.43006656127888
H         8.05451350624259    0.75689330932904    9.11162815189512
C        11.69379359236628    2.84108901432834    8.22851296507478
C        12.99107289980569    2.55217164272500    8.79387782440138
C        13.16296209544521    1.68796189579150    9.87705607616841
H        12.31217163516500    1.21825153495767   10.34981388439938
C        14.42006931607724    1.44437971802301   10.38621014083561
H        14.54070031289631    0.80211061727003   11.24514669890062
C        15.54317038610381    2.04896983929180    9.81921472871860
C        15.37455066332256    2.91274021425441    8.73420893783723
H        16.24129796337125    3.36218910240612    8.27502955399868
C        14.11724790049593    3.16414012486963    8.23567283926350
H        13.97448555324515    3.82527378154097    7.39621048717087
C        17.78630971736691    2.74774698647180   10.59248735712860
C        17.74722599813969    4.12851413645020   10.48057110003291
H        16.86482603648501    4.64370740110036   10.13231532289959
C        18.87127975654058    4.84092427114443   10.84740911890638
H        18.83672440117423    5.91532695487854   10.75162767550638
C        20.03425395216120    4.23196563917745   11.33621729030502
C        20.04784181381849    2.85400160646018   11.47782442449583
H        20.90561029998145    2.33431483235081   11.87049474099945
C        18.93135778334466    2.11310515954636   11.11430355719486
C        18.63414560849542    0.70713736025672   11.16503521587035
C        17.31969094261376    0.55641807599173   10.67919313687220
C        16.76847018296544   -0.70839279967219   10.54888113876089
H        15.78455890671868   -0.85639996457582   10.12970498063090
C        17.52403389261342   -1.79084017848634   10.95285820085549
H        17.08677515259697   -2.77258365904510   10.85354546544814
C        18.81862802558233   -1.66509618570343   11.47276359482968
C        19.37312939497728   -0.39875187572548   11.56284010856636
H        20.37343350558530   -0.24458749676141   11.93109603814200
C        21.22552238006995    5.10688875772086   11.69733393018017
C        22.41025784896311    4.29624216531420   12.22984111895313
H        22.14177967893080    3.76154896209530   13.13806747717322
H        23.23184688338858    4.96905690782660   12.46729957066178
H        22.76368667296223    3.58504648965712   11.48685557692995
C        20.80864576825658    6.10898886229376   12.78309292566300
H        20.44968950903625    5.58075299946050   13.66403992943043
H        20.01765820221938    6.76737210121862   12.43526722029694
H        21.65895655905326    6.72339946524704   13.07144957762609
C        21.68929151958839    5.86110353179953   10.44306295119680
H        22.55028891825113    6.48375888946533   10.67684397713668
H        20.90346574208376    6.50083809467838   10.05117942580846
H        21.97421659171088    5.15591744148667    9.66490759957198
C        19.56191739394093   -2.92018920045655   11.90566837379081
C        20.96194352000493   -2.61707769037477   12.44634998260405
H        20.91320744228780   -1.96737972935869   13.31717748513259
H        21.58257863054352   -2.14980614775992   11.68530854488390
H        21.44279059173002   -3.54571461377359   12.74717521745225
C        18.76306729605665   -3.61633171223572   13.01678836610187
H        18.64070528519510   -2.94767221483231   13.86650584386787
H        19.28710744202601   -4.50871177063427   13.35247264876477
H        17.77631721277596   -3.91187134101594   12.67128912318146
C        19.71000191698396   -3.86217085031116   10.70258172984495
H        18.74252011338942   -4.17187896617885   10.31754965717785
H        20.26169173953519   -4.75428300737791   10.99148177249573
H        20.25234311525338   -3.36512459827872    9.90093501149695
N         7.20245681426195    4.94163310747210    5.22232704377435
N         6.07314158129693    3.00037022483677    6.65272204463596
N        11.46604329754524    3.78702162432173    7.34346419610249
N        10.54566958494567    2.16057478742028    8.54426348256970
H        10.46928936146093    1.37918950225804    9.17273704578653
N        16.81067231999661    1.79790577304034   10.33232286078932
O         4.04207840969030    6.24382324132890    6.97530438193858
O         4.51334718580243    5.69114968618225    2.45662509625866
O         2.62187171464063    2.45340672243366    4.85579795972856
Br        6.36004224768498    2.36673309390165    3.57447148308016
Re        5.21096073086969    4.13948552256815    5.04260456819576

