49
CSD_code = OHIZAG | q = 1 | S = 0 | Stoichiometry = C22H22CoN4(1+) | MND = 6
Co        3.98750340573417    7.24750029417207   16.00539543108984
N         5.50014267652105    8.26029650065558   15.53954516890081
N         4.68565514195945    5.99041480023868   14.57657045505861
N         2.56335675439242    6.11185205760991   16.46851343856646
N         4.97287445108595    6.19838299927444   17.43141666996964
C         5.89748356650277    9.41205530053717   16.08238696735064
H         5.28219466172320    9.81860741486436   16.86795235142398
C         7.03241386834529   10.09661846416993   15.68762666538938
H         7.29166945797278   11.02544065430154   16.16867822976965
C         7.81344350448285    9.57238044639391   14.66945174658312
H         8.70211650222478   10.07849355177365   14.32797574732061
C         7.41728095856791    8.37708701635228   14.10065690463947
H         8.00378312886347    7.94185474894501   13.30924747615106
C         6.26129063029827    7.74114112616246   14.54983393327752
C         5.79357379594076    6.47281474798586   13.99303092008051
C         6.42097153434706    5.79702463066693   12.94645355642554
H         7.30473586707850    6.19821354575768   12.47985401203409
C         5.89266957791198    4.60032868593559   12.49995684939764
H         6.36002330067340    4.06367704576530   11.68938650343590
C         4.74988174580011    4.10837834435166   13.11322732355949
H         4.30193274204205    3.18000968254600   12.79883725962635
C         4.18482681393532    4.84008345573665   14.14241889837449
H         3.28903595859199    4.48107519436390   14.63035695066673
C         1.34744046620598    6.07936156816941   15.92123930814063
H         1.14839717219890    6.78653072051570   15.13310192948814
C         0.35090337698272    5.20471682196823   16.31437518542565
H        -0.61150253529639    5.23755064917401   15.83046164089990
C         0.61208001995081    4.30278398396937   17.33404928297874
H        -0.13977933608455    3.60901324912600   17.67439789177957
C         1.87003305145310    4.31918560858841   17.90553649468285
H         2.10673140252429    3.62768400995347   18.69648875548026
C         2.82614842625813    5.22956785855574   17.45889787806176
C         4.17546517224386    5.29255016707842   18.01820408997872
C         4.62644455822793    4.49521464171036   19.07007868008661
H         3.97452375217218    3.77791394815229   19.53935190650777
C         5.92603938150892    4.63764926655805   19.51871889107927
H         6.29395165622220    4.03397960044683   20.33331463202497
C         6.74315143330451    5.57381192521472   18.90224137946504
H         7.76287885324474    5.72078293764697   19.21826822198224
C         6.21997904863483    6.32866604003840   17.86763120398071
H         6.83502231992021    7.07048080769039   17.37687665033053
C         3.30810589864046    8.51349592136494   17.37836238020089
H         2.34170457759262    8.21198523008213   17.78266006127215
H         3.18229267322579    9.52654656776853   17.00563632182784
H         4.00810594970812    8.53873309309392   18.21570712370621
C         2.98427396432148    8.28815438449138   14.64191394515434
H         2.04992334797791    8.69833028885669   15.01620522991260
H         2.76066566241234    7.63869937631077   13.79328584445615
H         3.55625966145372    9.13108062491458   14.25372161200488

