87
CSD_code = OHOBIW | q = 1 | S = 0 | Stoichiometry = C42H42CuP2(1+) | MND = 2
Cu        2.66827601106126    3.97213293667907   10.68587885730050
P         4.00268843620528    5.45680217112612   11.75964523534304
P         1.12109672873328    3.71545676521432    9.05346925102098
C         2.85498820648084    6.83091488529241   12.21861108327641
H         2.26929583292018    6.48534620719929   13.08584169133197
C         1.92511504142586    7.16419434938710   11.09625509125279
H         2.19494076930131    6.83766988277723   10.10010603536915
C         0.80091097653573    7.85682277918280   11.31999090737389
H         0.09992568194686    8.00608154678049   10.50911209484716
C         0.46156797181572    8.46766727666976   12.57306782373770
H        -0.59256131501367    8.61524786047114   12.76703132765410
C         1.35678225791621    9.02093822722165   13.42310771087297
H         0.98516920214642    9.58651271686973   14.26685717970501
C         2.76846705843505    9.09288955622687   13.17655418014321
H         3.25909922600238   10.00126886637636   13.50010718831433
C         3.48264934612395    8.15274376175837   12.54471916730693
H         4.50520497275599    8.33541910226358   12.24753788055718
C         5.14273366389336    6.26561469627218   10.55183763032795
H         4.49664512655302    6.86467620665484    9.88898343482393
C         5.86576584008629    5.25287100910042    9.71727095930551
H         5.97870131498707    4.25367848414470   10.11497475986345
C         6.36208567720308    5.59856105967186    8.52216218784358
H         6.79815791666125    4.84223634631899    7.88255297845068
C         6.40839210599677    6.94370415947239    8.02499723407404
H         6.42361586824116    7.05894963078032    6.94913324955248
C         6.62463285404868    8.03550864602111    8.79493828071106
H         6.80096027776670    8.98456438783170    8.30659698658826
C         6.84747718825020    7.99454108205102   10.21136173835099
H         7.57747702066597    8.69390522301943   10.59666568718385
C         6.25581731483795    7.13417529855955   11.05130692020083
H         6.58575720673009    7.04264640943785   12.07413780941508
C         4.92781264551199    5.36427497831338   13.38660358172164
H         4.95276522289107    6.38998639489853   13.77284195610161
C         6.30605842142274    4.79224012942853   13.32170698860829
H         7.10294263446611    5.37808324781065   13.75813299487949
C         6.57839576025305    3.60206583428190   12.77429433475803
H         7.61084343957827    3.29300926712691   12.68016600873343
C         5.59801810757419    2.65793191523227   12.32703825505401
H         5.93517713561554    1.93790511679150   11.59105762712268
C         4.38322492705203    2.47751181516997   12.89882334779114
H         3.79838301946285    1.61769398405989   12.59621129102796
C         3.89832051426533    3.19796774272762   14.04084157200350
H         3.28169927735659    2.63115331967497   14.72677501108928
C         4.18237288045404    4.47485035635097   14.33249569034027
H         3.87389500725062    4.89850734504232   15.27760108009843
C         1.02954278890787    5.25720157390622    8.04233945902003
H         0.51193973630285    5.98856091393679    8.68783946413528
C         0.33085489092163    5.21260669735767    6.71832640652878
H         0.13837275042387    4.26042912173964    6.25010806172919
C        -0.03886400308838    6.35317483724999    6.12367509777162
H        -0.62876663388228    6.30960834101336    5.21775890956253
C         0.31916096704721    7.66901067585469    6.57482686313169
H        -0.35650616666697    8.46843709868605    6.30139434301721
C         1.50215516764277    7.99323297387271    7.14261096858474
H         1.72848735804499    9.03883030161030    7.30331246608202
C         2.57182027071941    7.06702253943216    7.38910549585172
H         3.57611022542639    7.45220503410933    7.26742130614404
C         2.39848965754556    5.78332680009698    7.72798234437299
H         3.23691671223679    5.10228531636521    7.79565677705157
C        -0.64806366618056    3.67063697996702    9.64607909074769
H        -1.27843761889795    3.92979584873190    8.78667417724517
C        -0.86169226616374    4.64716013019956   10.75903569452464
H        -1.63717521440676    5.38761595214132   10.62362652760594
C        -0.14987977809405    4.63451098904360   11.89378372105003
H        -0.31169347924094    5.42663231325957   12.61267276981401
C         0.79626017577276    3.62554069403430   12.28454660167376
H         1.50270399733438    3.90873815629122   13.05669354825030
C         0.69159027944807    2.30798046457896   11.96643124546113
H         1.34941287376698    1.60771254702097   12.46368664236898
C        -0.36730968568656    1.73319075200069   11.19167741176505
H        -0.65661085237540    0.72930796758483   11.47351515639926
C        -1.04090507089463    2.34144690906657   10.20664666269827
H        -1.91311493138027    1.86604297871110    9.78063870195342
C         1.02350717153715    2.29868276672755    7.84051773296671
H         0.00718760256142    2.29541308884281    7.43078221193115
C         2.04109387594135    2.36183154328818    6.74636367721886
H         1.68207446296500    2.28003734100444    5.73016779069212
C         3.35086808229951    2.50404277382987    6.98294194943063
H         4.02038273465887    2.63786381416273    6.14359918196665
C         3.96919274631060    2.45263632750037    8.27508642395771
H         4.92761932736591    2.94607396201836    8.36663778656180
C         3.54107564777595    1.68182090096455    9.30570570981978
H         4.18955207811296    1.57732419529338   10.16430899703597
C         2.41342755652097    0.79721910783429    9.25365313426127
H         2.50872148755119   -0.12323028321389    9.81442662268065
C         1.29724165180546    1.00568562913481    8.54290963801805
H         0.55341231613496    0.22683094702058    8.45983092748720

