67
CSD_code = OHOBES | q = 0 | S = 0 | Stoichiometry = C28H36Cl2Zr | MND = 12
Zr        5.21955003243814    4.92428941673197    7.29555988213291
Cl        6.05435931951864    5.11686401617942    5.11359672201710
Cl        3.40485018794803    6.30299166198993    6.73565758452384
C         5.02933921825435    2.82394259300861    8.52674147050925
C         3.70563456551416    3.35072907099835    8.44234697686084
C         2.78609269046539    3.69265648797099    9.58205870128448
H         2.17879859062989    2.82257845602808    9.84496935648480
H         2.10515780098856    4.49379604707024    9.29060029340786
H         3.33393693722112    3.99586244994106   10.47143320092330
H         2.29363584229049    3.51693415154234    6.72415837982475
C         3.28901538634573    3.28737136474677    7.08511287977756
C         4.35520754565832    2.77553424107482    6.32312408976417
C         4.43093163838850    2.27459396591909    4.91605500362935
H         5.17182229939225    2.84251330044093    4.34463768668353
H         3.46691624195365    2.37106874642481    4.41146085983543
C         4.85628109921757    0.79192899182843    4.94270405682173
H         3.99216157080044    0.21304981964675    5.27973073068968
C         5.30416887681953    0.32421719289438    3.54859272399191
H         5.00543381055273   -0.71273455400481    3.38547203226078
H         4.86868276727175    0.93220756560817    2.75715760519487
C         6.82538198615412    0.41498148918457    3.59137387731095
H         7.14251234272239    1.45442461721600    3.49867307740638
H         7.30450215001520   -0.16316996929561    2.80264475101122
C         7.14510058007619   -0.11268309876641    4.98563016033243
H         8.14879077712074    0.15219409138467    5.31676282924102
H         7.06227988044240   -1.20082015597531    4.99010952737140
C         6.05958952162812    0.50322965614108    5.88368585220790
H         5.75003474685649   -0.21027187987057    6.65255646967586
C         6.59845459471148    1.75106689454048    6.61763848168214
H         7.30897090101059    1.42165458896977    7.37971252417553
H         7.12961829477644    2.38042554495743    5.89301991562062
C         5.44317958379623    2.51194878583336    7.19829767468139
C         5.82320961167963    2.62302528176774    9.79022138994772
H         5.23963918844674    2.03725269566646   10.50675277247920
H         6.71953817628416    2.04437136920570    9.55482931634640
C         6.23255545075244    3.96869872995053   10.44562223219314
H         5.48471246653488    4.25956317485439   11.18704388543237
H         7.17963964635718    3.83240559620807   10.97734059233922
C         6.37189700468438    5.07127021656854    9.43093421871346
C         5.55771545092318    6.23620611717032    9.30709200388313
C         4.44702502021520    6.74374068639191   10.18894520584926
H         3.46700950750412    6.44423711806659    9.79609596776570
H         4.54684481407114    6.34956744304696   11.20471816015568
C         4.50764580027599    8.27460568412094   10.21211080772256
H         3.68684504238279    8.66607118915206   10.81583897520229
H         5.44871845558659    8.59447196490046   10.66604788707885
C         4.41047983879196    8.81977096864691    8.78870312325486
H         4.30368172991757    9.90582932264841    8.81007101759484
H         3.52271862200718    8.40212655045640    8.31091567116328
C         5.64923193612795    8.44769047114128    7.96662092540466
H         6.47244173132869    9.13061318984950    8.21329719444512
H         5.43553660526773    8.56741699147002    6.89821009526186
C         6.09567196243096    7.04306442749639    8.26490153259813
C         7.22927419963086    6.38031268131822    7.73389232857416
C         8.22795566238788    6.92046472336318    6.74653919380959
H         7.82483906761701    6.87979787909402    5.72859632656291
H         8.43249694294255    7.97206953995396    6.97218180359707
C         9.52517845597804    6.10828978243256    6.81026694401834
H        10.13804773687117    6.33141152840048    5.93585667786417
H        10.09242661671353    6.39155249743516    7.70047943234039
C         9.21834860667895    4.61228801933877    6.87083910740197
H        10.13450775389012    4.03477872284386    6.73269604242052
H         8.52194371151294    4.36119064074863    6.06410688572570
C         8.58407301717185    4.26887904783425    8.22037354849525
H         9.31344880152596    4.45705868921990    9.01912466011713
H         8.32482793977258    3.20859199596969    8.26245282502522
C         7.38138164475820    5.14823951290886    8.42600587188088

