26
CSD_code = OHOBEU | q = 1 | S = 0 | Stoichiometry = C10H12ClN2Ru(1+) | MND = 9
Ru        1.80946876983477    1.23306522368014   14.05390463618339
Cl        4.15022925224291    1.12099811913159   14.05383150850521
C        -0.28682809478851    0.47841403125323   13.35465588268413
H        -1.09051931246956    0.96029465132274   12.81021264183746
C         0.71817235188651   -0.23634763815474   12.64574642143904
H         0.66745989117683   -0.29924816123373   11.56339816736070
C         1.70182265851750   -0.94598859393977   13.34344550797004
H         2.42699997791463   -1.54788353979496   12.80677824664981
N         2.07077595871395    2.59531997710867   12.71368076999108
C         2.40322850077737    3.31617080026698   11.87913541548281
C         2.79774188134787    4.20810326429031   10.84435718885388
H         1.97624852912372    4.36254223392470   10.14455338953591
H         3.65116515811562    3.78646806951547   10.31183548570863
H         3.08637338957737    5.16637877116900   11.27666900960632
C        -0.28679461844076    0.47845962565324   14.75324864527335
H        -1.09047102178555    0.96034961262623   15.29770308166136
C         0.71823518460786   -0.23627445800059   15.46215722957952
H         0.66756224375813   -0.29915022298125   16.54450767307893
C         1.70185648115801   -0.94594136401337   14.76445375039566
H         2.42705527501472   -1.54781634390257   15.30111583950222
N         2.06991875189786    2.59560173041909   15.39405161892386
C         2.40264132865750    3.31597681598432   16.22910273155631
C         2.79776812877900    4.20808690748861   17.26359734090541
H         1.97641776489959    4.36283482181291   17.96356447995211
H         3.65124464289807    3.78634684896065   17.79599143359240
H         3.08652692658432    5.16623881741350   16.83110190376706

