89
CSD_code = OHOHUO | q = 0 | S = 0 | Stoichiometry = C44H37BCl4P2Zr | MND = 7
B        12.05960861173535    5.85804803783902    3.43238151023371
C        11.47636326590136    1.83529972130316    2.78449659836280
H        11.44051172644363    2.56673657334389    1.98795191394379
C        12.07861444847148    0.60743916092797    2.58348356549880
H        12.51521884775482    0.36914812751563    1.62482047215234
C        12.12267907830450   -0.31560305333483    3.61575949257290
H        12.59615448140213   -1.27408916266834    3.46397036655961
C        11.55976585127844   -0.00860264327268    4.84350704856162
H        11.59376607869258   -0.72837838778569    5.64806166263975
C        10.95383419343605    1.21880169793591    5.04591024073495
H        10.52226595249195    1.45484627083380    6.00815372146050
C        10.91321753322051    2.15070416004634    4.01595709974319
C         8.39081608759737    3.44729067513796    3.71313219021478
C         7.70947010996251    2.49246340873272    4.46446554617809
H         8.21428591542098    1.99487245328008    5.28152157097482
C         6.39202602023352    2.19408529372641    4.17514134155451
H         5.86301350855669    1.46142406865312    4.76662130643422
C         5.75024808516807    2.84280003473459    3.13156663845902
H         4.71781338355930    2.61609900155762    2.91111000567556
C         6.42985296848864    3.78314495230270    2.37631668411224
H         5.93066677691404    4.29310720064905    1.56687424964697
C         7.74993894220438    4.09080738926936    2.66065379388118
H         8.25490494919678    4.84312155743268    2.06823894537857
C        10.15434547400590    4.18421213337862    5.93220678980256
C        11.30821171143352    3.93524554063892    6.67010695059708
H        12.16502498625977    3.47945146822625    6.19506540442795
C        11.35358611400168    4.27850263780032    8.00820902051981
H        12.25573532461579    4.09962548867961    8.57411947361805
C        10.25127055384361    4.85811714539163    8.61450710589406
H        10.29404668213141    5.13455051666490    9.65751087241968
C         9.09651094224520    5.08841855619403    7.88521043886397
H         8.23899178730088    5.54418780368523    8.35614156861707
C         9.04231100641727    4.75699189810679    6.54335186373826
H         8.14892827118797    4.95845557729268    5.96741035737021
C        10.79289216429864    5.03502706962071    3.14447686330653
H        10.42595916442494    4.94226606828474    2.11609803705735
C        13.14639472155298    5.37547982134862    4.47113354454140
C        13.49537793327802    5.99420643647121    5.67078909758770
H        12.94707044825960    6.86175271057413    5.99939198180024
C        14.49973044842831    5.48687585585955    6.47692795740519
H        14.74057646492742    5.98847582027810    7.40319924034542
C        15.18979023677772    4.34547699632953    6.10727785456189
H        15.97302866628723    3.94974829055745    6.73792255494641
C        14.86032058570345    3.70919266928149    4.92225573471237
H        15.38357940775061    2.81169205453244    4.62266687598046
C        13.85465147338061    4.21906001854739    4.12161871880506
H        13.61126563486411    3.71146085710805    3.19736287764137
C        12.14150043630231    7.12017045613776    2.56793956241317
H        11.77037476685108    7.04504585832394    1.53692154352787
C        14.83764471445135    8.15185056049022    1.78425199247008
C        15.46309606090932    6.93134519608808    2.02923017925277
H        15.00920645021806    6.23578914937875    2.72305283246901
C        16.64758102587243    6.61872319802979    1.38954010172545
H        17.13456509425040    5.67580379003704    1.58926353762540
C        17.20527003094712    7.51354869357298    0.48911981725932
H        18.12845713089828    7.26810940600092   -0.01419981155954
C        16.57460618253629    8.71864923720854    0.22847855866271
H        17.00438284727548    9.41117833428774   -0.47991622735049
C        15.39196963061169    9.04071282423783    0.87219785957363
H        14.90032108578452    9.98063662517724    0.66680608777728
C        13.69532920648894    8.93260922808726    4.34336757542261
C        14.94944468752451    8.67957993593297    4.88679254952419
H        15.71119974065756    8.19368927183150    4.29404094607172
C        15.21388464103123    9.04763781783848    6.19384757225306
H        16.18606618573273    8.84744152338838    6.61966964270329
C        14.23398421782056    9.66508602578937    6.95443025793481
H        14.44282096738598    9.94224572907240    7.97715673070832
C        12.99005196693123    9.93363090499426    6.40539873942994
H        12.22667491590917   10.41593433672438    6.99558534416539
C        12.71532617785678    9.57333947108810    5.09853652249241
H        11.74650601599306    9.78853446364531    4.66181815953045
C        12.55290572072788    9.94922625597090    1.89364627890788
C        13.12621707702326   11.18080958907093    2.20369969662005
H        13.96686204570682   11.22295325680236    2.88465082326630
C        12.61125020679718   12.34049163753087    1.65624731282929
H        13.05075232024480   13.29496256371542    1.90611009977104
C        11.52418645888257   12.27694028186243    0.79864583456013
H        11.11457389844857   13.18489880614597    0.38186940206614
C        10.95786877545994   11.05329314479870    0.48397592124635
H        10.10546444795779   11.00288898638727   -0.17583843400554
C        11.46661220190453    9.88632185696491    1.02795856770468
H        10.99891542661733    8.94135400910394    0.78449349096219
Cl       10.54345417751286    7.41885949407355    5.82234944964335
Cl        9.59540619000656    9.54135572303813    3.47370414599757
Cl        9.13734525653983    7.13732179179521    1.25414026030734
Cl        7.74730483747004    6.77281387681278    4.20970848410032
P        10.11599687830476    3.79820577965993    4.16195393332331
P        13.25590359329062    8.45681190129815    2.65294106748259
Zr        9.95347928724493    7.21415903470484    3.53105644147562

