56
CSD_code = OHONIJ | q = 0 | S = 0 | Stoichiometry = C22H25ClN5OPPd | MND = 4
C         3.22501774455716    9.70743732464386    5.66510325773850
H         3.27540240829476   10.45021692325760    4.85627881961010
H         3.32380735105282   10.19539623021317    6.64050367019861
C         1.88586049934765    8.97300921823871    5.62400360718116
C         2.26373192712951    8.75824061208878    3.21578542583283
C         1.60279007264174    9.12602099767185    2.04272121538375
H         0.53357459145945    9.26493289332257    2.05862281993324
C         2.30312854962713    9.34252993361666    0.87398709987882
H         1.77359655703371    9.63991277934492   -0.01831209314919
C         3.68215517991944    9.19362908233681    0.84881155307678
H         4.23344986277559    9.38067714614569   -0.05955033023363
C         4.34672387268176    8.80357618003154    1.99265706498593
H         5.42104167751942    8.69593925983595    1.98805074148962
C         3.65572608530490    8.56901855271490    3.18301529375321
C         4.40335308218845    8.13438222670596    4.36897253775368
C         5.35749585141587    7.03575942779666    4.32251818187085
C         5.51028683782684    6.19710683043547    3.21699438083821
H         4.92021748575489    6.35867787973312    2.32604286664462
C         6.40290744795227    5.14550206165073    3.26930986612263
H         6.52610323216985    4.49677300567579    2.41447847362077
C         7.12971992477150    4.92086494933206    4.42740462111780
H         7.82670736756997    4.09571557259072    4.47239234586226
C         6.95779631076048    5.73620780425565    5.53782762709797
H         7.52647243568319    5.51626606839355    6.43070021935796
C         6.06928113101896    6.80601298876640    5.52510392023538
C         0.21738289867429    7.90385891479315    4.26340226403140
H        -0.00474593049520    7.42573790945478    5.21695462519391
H         0.23709582953768    7.15870080371232    3.47050689065566
H        -0.56357068512879    8.64045087777297    4.06162073706947
C         8.28416206914868    6.33024197586718    8.81572180545828
H         7.80468726360748    5.35149076429647    8.69792165782037
H         9.03944712606658    6.44844405126340    8.02995313763842
C         8.01737357371231    6.14694177918861   11.19689888315928
H         7.45756439934445    5.22470203083861   11.01824700894782
H         8.59750978464257    6.03839262728075   12.11904869489926
C         6.14435707955226    7.33985028163214   10.27661284629924
H         5.43264456205846    8.14737307421489   10.48005844280909
H         5.58754423015173    6.39740069186649   10.19662992627057
C         8.09005238675317    9.07312759666976    9.23654334382049
H         8.83690383198608    9.29031057545502    8.46251023107084
H         7.47479977857217    9.96654366746643    9.38779888901661
C         9.65679790209026    7.60822194556605   10.32005572971201
H        10.24645436865444    7.50786176808727   11.23705741197674
H        10.33338149157818    7.78882020382739    9.48009571893598
C         7.83082115852403    8.48044319534617   11.54989409232996
H         7.12775561379167    9.31317598201568   11.62260888724504
H         8.39783866509796    8.40413152668709   12.48338896098935
N         4.24248142713835    8.69731304805855    5.52487612230085
N         1.52382230742893    8.52654448021855    4.38067675322440
N         8.95198023379454    6.35505579198957   10.10167975738986
N         7.08487139733453    7.24450152623154   11.37386542289954
N         8.77089955617781    8.74743320493794   10.47234578295150
O         1.20714093643524    8.77288501400045    6.60112360436863
P         6.99256817386869    7.68216738216652    8.65119898817263
Cl        4.98808131765273    9.82024397172177    8.42709930918585
Pd        5.58624976579703    8.13972738857847    6.95158088794843

