85
CSD_code = OHONAB | q = 1 | S = 0 | Stoichiometry = C43H38NP2Ru(1+) | MND = 8
Ru        2.33747985793953    7.98901095280195    4.43548123102879
P         3.21637204640978    7.84606411699090    2.29259915506854
P         3.15420039356333   10.08862199301750    4.96862279265555
N         0.68370976287172    8.76185939394295    3.85697700287576
C         1.25007052435608    6.23381209771870    5.38184787447013
H         0.23601279647522    5.89825193147451    5.20760506487290
C         2.40156147935579    5.74035716389752    4.73977310967933
H         2.42351034039460    4.94562089901580    4.00655111330649
C         3.54350165829673    6.32869829082912    5.36436855506722
H         4.56473286607143    5.99975219467612    5.22107277091217
C         3.07807787511262    7.16570389135792    6.40531406224213
H         3.69172280582918    7.66023449255009    7.14777688422211
C         1.65962001872813    7.13893657658338    6.39961558547415
H         1.02350511217515    7.55749618617729    7.16672307032643
C        -0.41958256666207    9.05429974532634    3.67077508789199
C        -1.75940555914981    9.47152815519476    3.38549166497203
H        -1.82201511743168   10.55970962891177    3.42282357182569
H        -2.44719228732973    9.04987471032453    4.11876250641556
H        -2.04898162646940    9.13204761726991    2.39027145418655
C         3.06719822982873    9.13309706084174    1.00686552238222
C         1.96222806477490    9.97643896493081    1.04369375943909
H         1.29138731600681    9.92989662193644    1.89050920941309
C         1.73480433802027   10.87584191493558    0.01804859292966
H         0.87411007306945   11.52658255498494    0.05430015035036
C         2.61275597761880   10.94304661899099   -1.05038451283353
H         2.43857931222215   11.64557219956228   -1.85089599523615
C         3.71438074477243   10.10346265705137   -1.09327875540764
H         4.39828638641513   10.15202763040496   -1.92723053451949
C         3.93912126941625    9.19340113282330   -0.07697283302222
H         4.79621457781333    8.53786332966681   -0.12570865968681
C         2.46873650021092    6.48864118878909    1.32638964535101
C         1.14970476994421    6.13349085956830    1.58718251819933
H         0.61658582134534    6.62602641521564    2.39289846497143
C         0.52547521805221    5.15832401696033    0.83062988330384
H        -0.49717485808857    4.88274638773377    1.04159876167857
C         1.21432335836867    4.53401078060235   -0.19608056953669
H         0.73096569962830    3.76905156224985   -0.78401250929627
C         2.52417441501150    4.89468032169645   -0.46993532138099
H         3.05999348034631    4.41255699297558   -1.27349646354296
C         3.15026399139541    5.87281318813342    0.28041100088962
H         4.17096303136962    6.14970918390166    0.06009216380317
C         4.98776658425287    7.44357262805579    2.31323544508523
C         5.40482988997488    6.12686402060914    2.49686117595598
H         4.67066389712379    5.33404594009746    2.55239442680243
C         6.75254236437968    5.83172051093925    2.59064937770581
H         7.06995181004896    4.80813871978245    2.72334171554440
C         7.69406618026561    6.84598752139400    2.51188313355031
H         8.74533330862566    6.61167474172755    2.58030257109081
C         7.28486229462542    8.15921997421748    2.34586214303167
H         8.01548358483370    8.95200396949136    2.28957681452943
C         5.93818490079745    8.45946424800348    2.25612881493901
H         5.61627591100408    9.48397281725946    2.13243948814075
C         4.94807567723861   10.32617419182003    5.15546679020372
C         5.78969020173675    9.22443991034836    5.23413492213428
H         5.37498983354683    8.23165782223927    5.12867338609150
C         7.14901271132361    9.39454090808062    5.43213389835463
H         7.79479170785838    8.53140287188167    5.49201064245842
C         7.67605196210912   10.66889405531457    5.54937141065068
H         8.73575581879516   10.80423761318916    5.70248773109493
C         6.84135274560326   11.77423488579385    5.47167546443829
H         7.25123750029305   12.76848282244573    5.56605116333826
C         5.48299316396233   11.60914069482311    5.27924877273723
H         4.83270679161399   12.47135796428808    5.22447167043088
C         2.51101366068729   10.57128366209925    6.60938035638536
C         3.32123998365079   11.05996919281780    7.62838968090354
H         4.38409728401106   11.17242503547713    7.47460268214183
C         2.76919090255961   11.39862227716926    8.85234652210358
H         3.40714004264026   11.77540366026910    9.63738644934244
C         1.41036195423161   11.25488612911109    9.07321755755448
H         0.98501835805756   11.52226841209466   10.02814752948711
C         0.59868466113212   10.75522890439895    8.06704697256866
H        -0.46063752506333   10.63122585666679    8.23835730378471
C         1.14644044932214   10.40748386967374    6.84683402412350
H         0.51625715371754    9.99175360967332    6.06924975106500
C         2.70422852728060   11.50995722562085    3.91556613302264
C         1.53147230595456   12.23283540076190    4.10803025995381
H         0.87798285562457   11.99563475726198    4.93486647831323
C         1.21386050173093   13.27819208188338    3.25840681558523
H         0.30709829483304   13.84224882972132    3.41995286956047
C         2.05952774632181   13.61243793599477    2.21387830869183
H         1.81247520666312   14.43486438036387    1.56030187712843
C         3.22682512516423   12.89338588383545    2.01436158393606
H         3.89060288949289   13.15057390676058    1.20299405817329
C         3.54264828177060   11.84270161556946    2.85361751186286
H         4.45327440147914   11.28122691907638    2.69918824000970

