37
CSD_code = OHORIM | q = 0 | S = 0 | Stoichiometry = C12H12N10O2Zn | MND = 6
Zn        0.00088550358325    0.00029004183593    0.00241468902226
N         0.43197033470254   -1.87349140461427   -0.14353557192129
O         0.79899276026994   -0.02788157642737    2.16652765329513
H         1.63333760774297   -0.48181997383831    2.31382236903349
C        -0.56802177949027   -2.66061214011416    0.30822361312212
C        -1.78626589504049   -2.07656812979678    0.80638159538605
N        -1.83948638097277   -0.74141496967028    0.72330432471474
N        -0.21025916429960   -3.93792562724498    0.21466923108520
N         1.39341823994220   -2.70701677986819   -0.50422269499021
C        -2.82701912613551   -2.83085514009448    1.34415707788559
H        -2.72975867831554   -3.90371334110121    1.38339558038711
N         1.00332900965281   -3.91714549123775   -0.29061592588372
C        -3.98819003925884   -0.78047226093128    1.73272798621627
H        -4.84160321036000   -0.22952520635053    2.09413365689386
C        -3.94464271907334   -2.16693623249843    1.81253656304936
H        -4.77001384289398   -2.71851107586604    2.23802272110004
C        -2.91027339140835   -0.10813614626421    1.18042023818163
H        -2.88581823936118    0.97090736018945    1.09783511106036
H         0.82613693531830    0.80846277821263    2.63903530346712
N        -0.42987509461652    1.87397886095733    0.14895495087181
C         0.56947865217902    2.66105621733446   -0.30427765702798
C         1.78618727400063    2.07688798927349   -0.80605706258372
N         1.84002886085219    0.74182214159218   -0.72202691160034
O        -0.79643827885363    0.02682499902434   -2.16255503664633
H        -1.63087571490739    0.48001911200512   -2.31244955612402
H        -0.82184353896557   -0.80985698476019   -2.63429485435668
C         2.90930581798867    0.10841370262394   -1.18249069073150
C         3.98491523618238    0.78052410166156   -1.73953769812432
H         4.83712556736634    0.22947733674460   -2.10361602767337
C         3.94066647064843    2.16688919115420   -1.82053520883113
C         2.82473741383071    2.83096250405834   -1.34836839577007
H         2.72703955327455    3.90375340068975   -1.38817645646806
H         4.76424568068253    2.71826391233239   -2.24974013105636
H         2.88570237560523   -0.97052488187555   -1.09828785645978
N         0.21268487293295    3.93845852123931   -0.20830703913740
N        -0.99973829941740    3.91778458250518    0.29977323671761
N        -1.39006477338839    2.70763060911893    0.51275887389588

