58
CSD_code = OHUFON | q = 0 | S = 0 | Stoichiometry = C26H24ClN3O3Ru | MND = 9
Ru        7.87910005381129    4.17082962453306    0.63313704754879
Cl        8.15210091374829    3.33888418869659   -1.54140431258297
O         9.99979313949107    1.33303816364234    2.67888605356546
O        14.66370411584293    6.28789888009407   -0.13808898898148
O        15.26738141185712    5.47192591985259    1.75819592133483
N         7.05479212125886    2.41061514283279    1.07251728597837
N         9.49735670873655    3.09922517249878    1.26904753436180
N        14.46772324481307    5.60194858708996    0.84947918473590
C         5.79265934571817    2.02301977634534    0.74214847471087
C         5.05201273591395    2.74821291154780   -0.21076895505230
H         5.53446777515441    3.56675759235295   -0.72581510022958
C         3.77504793995297    2.37284968969105   -0.53249697285209
H         3.22319882147497    2.92503587618083   -1.27778750229685
C         3.17830819582568    1.26603946126843    0.08730726672364
H         2.16589501498239    0.99368260635818   -0.16914746842275
C         3.88761769469420    0.51895204890013    0.98710025887072
H         3.45207737020069   -0.35747293654156    1.44340062510413
C         5.21333253664049    0.85892225729393    1.32210530419591
C         6.00142849654691    0.07167204899715    2.18933695951904
H         5.57307223543899   -0.80806803746345    2.64466701637614
C         7.30378504505108    0.42568328651213    2.40277697277433
H         7.98443452170817   -0.15147825800944    3.00861613565956
C         7.79416989102898    1.60619583465907    1.82695423659466
C         9.23010964086078    1.99911997680284    2.00175565055763
C        10.75387469744700    3.65375051178883    1.18434064840292
C        11.08548324480077    4.36979391107433    0.01992995828269
H        10.37420554733989    4.39539731290392   -0.79557896524677
C        12.30179724258963    4.99530361305493   -0.09697419116911
H        12.56984395944778    5.53894979085020   -0.99016791706243
C        13.21766477720959    4.92282939865379    0.95298838386482
C        12.91700895015738    4.19359461382415    2.10118943783064
H        13.64719968616999    4.14263023723043    2.89448173125057
C        11.70103673934271    3.56203872020661    2.21779245736774
H        11.46863751309918    2.98846930026362    3.09936777500220
C         6.23768875022823    6.22730143982950    4.58271292104134
H         7.10359028633452    6.87621535838470    4.69517829142395
H         5.87729200673255    5.95780325274806    5.57201919878135
H         5.45578713024837    6.78220558278444    4.06832290501108
C         6.61549913702615    4.96455288654639    3.79839599263761
H         5.71849587492175    4.34062935114788    3.69576143223593
C         7.67282614056783    4.15951500071456    4.55404844191480
H         8.03850097735320    3.33166197593004    3.94839378345488
H         7.24174437692783    3.75108246820432    5.46472640575071
H         8.51776070860287    4.78302930822278    4.83572175239308
C         7.06058925026828    5.37094869611035    2.41265128546732
C         6.10430889831921    5.45549953486267    1.35976839151278
H         5.07024428047130    5.19864579861859    1.57021987413164
C         6.44946137094873    5.94543876227120    0.09730890635470
H         5.69046770215613    6.07207472774068   -0.66673875189749
C         7.78523626537987    6.36157875332040   -0.17723132474682
C         8.14325901761336    6.86846100007709   -1.53937794760453
H         9.10845878018410    7.36849561835172   -1.53093577688754
H         7.38301176988552    7.55542645160636   -1.90736251452814
H         8.19769477573321    6.02306601923900   -2.23017176767313
C         8.72336927265438    6.31687070283900    0.86429581262687
H         9.71915324512467    6.71745703365790    0.71212429987932
C         8.36860711734148    5.80668332494647    2.13861353350353
H         9.10833153662496    5.83020972786124    2.93006290850015

