58
CSD_code = OHUFIH | q = 0 | S = 0 | Stoichiometry = C26H24ClN3O3Ru | MND = 9
Ru        1.50613373847670    3.27442310920360    2.80315520540287
Cl        0.26841320482589    4.13389219933505    1.01296675575987
N         1.29422215521935    1.50880999300892    1.92292461363299
C         0.17622179811362    0.73442051103375    1.97886002544650
C        -1.04770328271245    1.28576452789938    2.40227026424394
H        -1.09434206410810    2.34955119210648    2.58922249259037
C        -2.16990938762484    0.50555815566725    2.48826769835639
H        -3.10789665344674    0.94256293098823    2.79550973782415
N         3.15555889886837    3.21343071124740    1.57973286798030
C        -2.11766711117633   -0.85680173310656    2.16282770151078
H        -3.00777366802872   -1.46074507913898    2.25339288669529
C        -0.95508941641126   -1.40679476260611    1.69628231394510
H        -0.91492271828614   -2.44391424349245    1.39808232008318
C         0.21095189889990   -0.62696374858731    1.56461969994981
C         1.40431965125804   -1.13064994475524    1.00271091770400
H         1.45267531693016   -2.16367918931061    0.69389833884811
C         2.45921703784009   -0.28035851882771    0.82348482503322
H         3.38017137960822   -0.57201447742236    0.34384979039051
C         2.36764937925514    1.03438774755650    1.30101495266258
O         4.50938799904813    1.68010416547797    0.49360657909154
C         3.48644311639135    2.00529294707097    1.08348570473048
C         3.96078004071507    4.32594363988089    1.44462397084944
C         3.36721801170062    5.58397565949659    1.58698674978301
H         2.29309780369674    5.67057176451536    1.68549383912218
N         3.51993949557228    7.99152991788406    1.83016268234542
C         4.14532211678162    6.72746178944198    1.56117609931533
C         5.51667256695682    6.67393110074235    1.33389617950595
H         6.09310546145566    7.58516049951790    1.31825835125522
C         6.09669477169330    5.43245381013196    1.14822266779515
H         7.15826124113051    5.36115408344482    0.96648057976131
C         5.34433469819871    4.27277321212291    1.21249668088235
H         5.81603244759392    3.31476035270799    1.06893402804338
C         2.60572279261266    3.08213092281217    4.83390900138583
C         1.33592574880523    2.46818531574072    4.93382703002885
H         1.26914034532957    1.45055505027830    5.30801825403130
C         0.13687820614028    3.19560433984448    4.74495701649851
H        -0.81181198088896    2.72245854063546    4.97007320244046
C         0.17607562028235    4.53376326608980    4.32730052971602
C         1.44640594877269    5.15481001972391    4.18285034401165
H         1.49423653203481    6.21182807910953    3.94042651731799
C         2.62665144536754    4.44460524016003    4.44152451877666
H         3.56754463124517    4.97950299727820    4.40426911197287
C         3.83916392644618    2.31084875935107    5.26129398871547
H         3.64252788821609    1.94117168983498    6.27800595997112
C         5.10714008666012    3.16101605177446    5.30015210857444
H         5.93572345970227    2.55513109180822    5.65898731869564
H         4.99414342904548    4.00914817370131    5.97208344825866
H         5.36103471460388    3.52148471844513    4.30488682413791
C         4.06802798392350    1.09881461625200    4.35116459313724
H         3.17680956832043    0.47830124943612    4.27644429893614
H         4.87662073702170    0.48620550162369    4.74275699338018
H         4.34598675642107    1.42876747990206    3.35244961522776
C        -1.07086899296790    5.31567225143552    4.06420329758995
H        -1.94146000214231    4.83518505730819    4.50570817383178
H        -1.22139909192830    5.38524921731323    2.98310603277093
H        -0.97815786775720    6.32894532395321    4.44976052285121
O         4.09119541906473    9.00116206354521    1.47888352322544
O         2.46502276722602    7.97246065938524    2.43696025398332

