58
CSD_code = OHUMUB | q = 0 | S = 0 | Stoichiometry = C28H18F4IrN5O2 | MND = 6
C         3.47559292985069    9.89711585447836    2.03670863680994
H         2.60937187738925   10.51324132830951    1.80892686346268
H         3.67516113333104    9.26298065263542    1.17252284417933
H         4.34271461122514   10.53373683024161    2.19170975660158
C         2.52071016701778    1.54950691138576   11.34190415441983
H         2.01544121946157    0.64765518291710   11.00190176883317
H         2.02082052442672    1.92763412742523   12.22924215036502
H         3.54063139734082    1.27466994399427   11.61006269365207
C         4.02359496574749    7.79805918836580    5.14031209137000
C         4.26600724853044    8.62680183295565    4.04963903792201
H         5.26976824080580    8.94574079292627    3.82679733093285
C         3.22425907955074    9.04053725880008    3.23094838016827
C         1.94213697212399    8.60788830918666    3.56094063595158
H         1.08957285882811    8.90391132708289    2.97029685215602
C         1.76841556226450    7.78315699884670    4.65278398053844
H         0.77630794599975    7.44442350539420    4.91918883011628
C         5.03530619653455    7.30919683332277    6.06899259250701
C         6.39176803069974    7.63004870881325    6.07829513416550
C         2.95924479149594    3.22025174111458    7.99044017922578
H         3.26644294063796    2.99337000637697    6.97862377096885
C         2.93188113428597    2.24209522554872    8.96235874949891
H         3.21304016849381    1.23082820886886    8.71504818932608
C         2.54472085522199    2.57568791823573   10.25974502669730
C         2.20433999328533    3.89855803734077   10.50831855142505
H         1.90979791193623    4.19372984619282   11.50111855737298
C         2.25069812158987    4.84008292360860    9.48523029997775
C         1.94486784626564    6.26082377120535    9.61107282239079
C         1.48121231441660    6.92277194109009   10.74511478016261
C         0.59907709262445    4.46748619911453    5.27927626038706
C        -0.58322325137195    3.92490036563916    4.79339040870161
H        -0.52276241874655    3.26178936267230    3.94428589193271
C        -1.77604255248008    4.25209580950443    5.41029139711380
H        -2.71266961915584    3.84639256754531    5.05826682441512
C        -1.74247230668357    5.11717558561124    6.49632953112593
H        -2.64567017341134    5.40251947495367    7.01193684182829
C        -0.52294486838042    5.61682028356916    6.91489346863199
H        -0.45826524421249    6.29862880417912    7.75261742918966
C         1.94643544449041    4.10177021080098    4.61688943772797
C         6.81524601179422    6.33286675671454    7.85305170137189
C         5.49944082792439    5.92361939557536    7.97359943931004
H         5.23230137815940    5.24126220360978    8.76464965828098
C         4.56735648616888    6.41421123633285    7.06403060999558
C         1.43076059483051    8.91165428148923    9.71643034017544
C         1.87833123783882    8.39556472117446    8.51389500670792
H         2.01182072338971    9.05558899274729    7.67166525745486
C         2.14711609668068    7.03041808422365    8.43152597347580
N         2.77041059036364    7.37218133668143    5.42521019791999
N         7.26345592789378    7.16408555492988    6.93853475241943
N         2.62307678217585    4.48436126607874    8.23362483449981
N         1.22419889929198    8.20660580885925   10.80796176189206
N         0.62480255324093    5.30049935738227    6.32120282777853
O         2.97141028863420    4.58136758129559    5.17657053805767
O         1.91056893308001    3.38025860003170    3.63577229287444
F         6.91251997175427    8.47605414864476    5.17703508190447
F         1.23873360973583    6.25694748029401   11.88496863129150
F         7.72992437939729    5.87573792097479    8.71450784808571
F         1.16044396868159   10.21732404161668    9.81613998938186
Ir        2.63639159753332    5.92230736108974    6.83280110487141

