60
CSD_code = OHUNAI | q = 0 | S = 0 | Stoichiometry = C28H18F4IrN5O4 | MND = 6
C         5.91866429142845    9.66606209097148   10.43715135640712
H         6.17740497832726   10.65171269991677   10.07476704798079
C         4.72148725283869    9.45497184702334   11.09016984695599
H         4.04575385121997   10.28140181801607   11.23070579267257
C         4.43050840367817    8.16876239940876   11.55249251825764
C         5.37859148847502    7.16295054055856   11.33383020095756
H         5.16343191198834    6.17394038445989   11.69862159886768
C         6.55860210260882    7.45436746413454   10.67273515294030
C         7.64447598650341    6.51781369164285   10.40175532290165
C         7.66750032290059    5.15639261373377   10.69483755853132
C         9.72975711093921    4.88645460781550    9.86283932587929
C         9.85152389207254    6.21681261607769    9.50586163585401
H        10.76010066105810    6.55845325918595    9.03629413920740
C         8.78831939238877    7.07915139548368    9.76918686327767
C         2.32952903308231    8.78164383263585   12.46951702488473
H         1.53584599488194    8.25634766413389   12.99703423959676
H         1.92948628142032    9.21174791236088   11.54690408475705
H         2.72319963521362    9.57866448627662   13.10638729654496
C        10.60341404804426    9.15499421992010    7.05745357055263
H         9.86142880779136    8.62035385411697    6.48075442320129
C        11.75239618443807    9.59356803472547    6.44630737107132
H        11.92923805359482    9.42571865500145    5.39752904792527
C        12.70525655809018   10.28393181778190    7.20878726184307
C        12.44042840665100   10.46477187148208    8.56408394012011
H        13.14116693169236   10.98297013590719    9.19283538620589
C        11.25581022902349    9.98352316102821    9.10920776751345
C        14.78756633811754   11.41892397544680    7.29517704375777
H        15.56313771955212   11.66076146473527    6.57110183560945
H        15.21303509149742   10.80664396575293    8.09472213663290
H        14.38138466598335   12.34202196909431    7.71640679679209
C        10.87793671455838   10.10295172416044   10.51271354298873
C        11.63830132057437   10.64905695368962   11.54504620586151
C        10.06230022751247   10.25885394879496   13.08553505507161
C         9.19474182064777    9.68640970877077   12.17341029370263
H         8.23807753028276    9.32374345638986   12.51378613324852
C         9.59411696685439    9.59785147582115   10.84280622933315
C         7.14083628057643    7.45708168783856    6.85508455238032
H         7.49029261492721    6.56971598917915    7.36612549800071
C         6.40980042571373    7.36296972063975    5.68502085704781
H         6.17699263331676    6.39379338329254    5.27323259205055
C         5.98912404384444    8.53026262976909    5.06097444244169
H         5.41784531331240    8.49034831677954    4.14560293778499
C         6.31973660350257    9.74091591250926    5.64017479979163
H         6.03222441140058   10.69194344110771    5.21916840344746
C         7.05503034206185    9.74738981785515    6.81820831524103
C         7.42317084027111   11.08825632947657    7.49128193028397
N         6.81244252239848    8.70871635172262   10.22037743851341
N         8.67093195657208    4.35385986321883   10.43436285265819
N        10.33810315321723    9.34157807431531    8.35053661360704
N        11.25516513918656   10.72993029824493   12.79516407780032
N         7.45812598644857    8.62276392124486    7.41213353988371
O         3.31416525149850    7.80617534243884   12.19871900230640
O        13.80313231348361   10.70737095300501    6.57075590364126
O         8.05519819625737   10.99186570276274    8.57994195761179
O         7.06613193332321   12.11166998520322    6.93419680214694
F         6.61484593119030    4.55347489702151   11.26624141729612
F        10.73436861329628    4.03987947876197    9.61279489665663
F        12.86693525469495   11.14321122540776   11.31953053027717
F         9.70146214179411   10.35704781472440   14.36934615564120
Ir        8.54801789177194    8.99907714702255    9.24146943557961

