41
CSD_code = OHUNUC | q = 0 | S = 0 | Stoichiometry = C16H24Ti | MND = 10
C         2.65534188987018    2.14859175089621    6.11775909783308
C         2.62440517264903    2.63276603583371    4.76761468510807
C         1.37536802975680    2.37157604535381    4.18428168583855
C         0.57034426347914    1.72170228496887    5.17999836743982
C        -0.74116435456782    2.03862995853154    5.65965558310142
C        -0.72921880948361    1.83460722105393    7.07930766951484
C         0.56035382833505    1.48760851802472    7.51113628594962
C         1.40867803874307    1.48330710878249    6.35264707474730
C         3.89050248730286    2.13373709115950    6.97077557405398
C         3.79325992458277    3.29525479399318    4.09839035075864
C         0.99823648067938    2.65397810516417    2.75987361170699
C        -1.98869650549475    2.27672001625079    4.85939751204513
C        -1.95003264241132    1.95379006511851    7.94430620012373
C         0.94166682350591    1.11400137316160    8.91330875264715
C         1.28701536117381    4.58110662550249    7.96391221556318
C         0.26168260840960    5.20222692574537    5.22046918591551
Ti        0.86325293807969    3.53633384558888    6.25198438563996
H         3.64418739276037    1.94539636351912    8.01454561761806
H         4.41408831952597    3.08942506947851    6.90350223875700
H         4.57804554616428    1.35010059319291    6.63888261895133
H         3.55037394650383    3.57123592785064    3.07480190851466
H         4.08089306688285    4.20080017775795    4.64063404363017
H         4.65470553141362    2.62486480710685    4.08320902442299
H         0.05979587368223    2.16318892276441    2.51093653028806
H         0.89143531467964    3.72588396425366    2.57769511948410
H         1.76505141286294    2.27561886916265    2.08102745949877
H        -2.62219634855435    3.01896728305978    5.34879931215096
H        -1.74992056945795    2.63020748601461    3.85767331589608
H        -2.56674159442953    1.35300668649293    4.76336174001561
H        -1.70701778974115    1.76836511442886    8.98804136457720
H        -2.37979415504941    2.95637908914576    7.86279916806291
H        -2.71091559917277    1.23620396835647    7.63132420799418
H         1.94808111063900    0.70169176328931    8.93656518854353
H         0.90126509929698    1.97603844721323    9.58325478767915
H         0.25956567523695    0.35615137799821    9.30387534509945
H         1.98121291010140    4.01298746231234    8.59759548964172
H         0.37077923094456    4.74489805957778    8.55711715040886
H         1.74344222894912    5.56996392437815    7.80699879699910
H        -0.36785032983190    4.91847415011239    4.36649888387090
H        -0.31673555331015    5.93109573492442    5.80780407753440
H         1.13275374529295    5.74321699248103    4.81203837237400

