61
CSD_code = OHUPIR | q = 1 | S = 0 | Stoichiometry = C23H35NOsP(1+) | MND = 8
Os        7.54073240714917   10.12963411119962    9.50423265058460
P         6.72867058019905    8.10410022411976   10.43934470050803
N         5.77187013648566   10.58534325348845    8.51743264668518
C         6.63875708862786   11.24484204792261   10.78458816926193
C         6.92633533999587   12.47274814918007   11.59524585427567
H         7.88483018281990   12.96075477265947   11.42992906254895
H         6.80460600323619   12.31547345386715   12.66691763930367
C         5.66635839524244   13.10147798395482   10.96789530310993
H         5.00250093312329   13.63759674319268   11.64027788703124
H         5.89800862971762   13.71914813771425   10.10463063892655
C         5.20900012030367   11.67601232109312   10.55664264102509
H         4.46141452451577   11.29866238023333   11.25609057363170
C         4.85200009603560   11.35899514855011    9.14016400882493
C         5.56451770951600   10.28759654811311    7.22925702461650
H         6.30005133822017    9.66145893503358    6.74368240609012
C         4.46681292939837   10.73350635887254    6.51785521872710
H         4.35889434619648   10.46518010228421    5.47969347032786
C         3.51932968717451   11.51740829757409    7.15872927099048
H         2.65046563647907   11.87810418761492    6.63273338105460
C         3.72171583750562   11.82811391699822    8.49461136412815
H         3.01826962109325   12.43911444086833    9.03729064862168
C         9.80240090809157   10.44216472020502    9.85177924273945
H        10.35496137630234   10.50800921084400   10.77637473631364
C         9.66093003509843    9.27511208183387    9.04434676324747
H        10.09084142419463    8.30904115966745    9.26559032327035
C         9.08376236335383    9.64985653823279    7.81313521559255
H         8.99853649476694    9.02188040867999    6.94056950759479
C         8.83988118343853   11.04053740679153    7.85913876170443
H         8.51554904622841   11.65349867441082    7.02962628346077
C         9.30501354691468   11.53500438090019    9.10890238600855
H         9.39269371567855   12.57705334306079    9.37467639685833
C         7.27352786167483    6.57404296421372    9.50278692448371
H         8.36560437437713    6.61814711323492    9.60260937426108
C         6.95364068004824    6.65268328233843    8.01165971401512
H         7.57263180628498    5.94221516630136    7.46691365508548
H         7.15706296252546    7.64828228473733    7.62471584158125
H         5.91532227291201    6.41012113783475    7.81020033473574
C         6.79711585052525    5.24550624010652   10.08194655663731
H         5.72991622946566    5.11065593026668    9.93176786772775
H         7.02214246249764    5.15562285089129   11.14113800480449
H         7.30553509773794    4.43340083047674    9.56458348062950
C         7.38975017592420    7.77798343786570   12.15758223310935
H         6.86438710568230    6.89793425322283   12.54000872922491
C         7.09006583636576    8.97573526349184   13.05425089252612
H         7.35154740270170    8.74359170286318   14.08425520238656
H         6.03941828975232    9.25242522060869   13.02094759759257
H         7.68083535906952    9.83057991602237   12.73091880079587
C         8.88928135353606    7.49916198321790   12.16628157273261
H         9.43166221421904    8.32241061657716   11.70681133607052
H         9.13859656885048    6.57371649008650   11.65382647006837
H         9.23103352882169    7.40650125315983   13.19519503681874
C         4.86729931148765    8.03660642301610   10.71018999511096
H         4.63633877539356    9.06543055309788   11.01092210715829
C         4.11992726522434    7.75649920380762    9.40669555088139
H         4.13256080270951    6.69545733218924    9.17500294491107
H         4.55252611895488    8.30591018161550    8.57488496631632
H         3.07905825318915    8.05803381260326    9.50730047721981
C         4.36509888382697    7.09823375142006   11.80694215843354
H         3.27713933652138    7.13746362262329   11.81949132777429
H         4.71306077467673    7.39437519168676   12.79143750634590
H         4.65450140793868    6.06824255124957   11.62704916349001

