61
CSD_code = OHUPAK | q = 0 | S = 0 | Stoichiometry = C28H32Ti | MND = 10
C         4.29815521937416    4.54351732415434    1.28702113078478
C         5.15472118257187    5.23074982419547    2.16368312439133
C         4.71776629518356    5.07486017502244    3.51796629164140
C         3.51208084484885    4.29627757176373    3.47746536833502
C         3.08386064251836    3.20963328113269    4.30840489900178
C         2.63172989990020    2.17622917576710    3.45309967801969
C         2.78879406374111    2.56207801008543    2.09201193941672
C         3.30541665888722    3.89680784138716    2.09068476030969
C         4.37371875888541    4.59569943335563   -0.21042375142674
C         6.30556383719392    6.09665544279604    1.74528632120598
C         5.19997878585364    5.93440489249477    4.64695614602438
C         2.94166725590885    3.21125467112403    5.79969249241854
C         2.01667975955017    0.89467306442223    3.93738054212627
C         2.24426863526137    1.81367277392920    0.91029190025727
C         5.81820123137523    1.87823610738935    1.36706744675564
C         6.24287832389748    0.52897584254545    1.77147687435754
C         5.28705598117553   -0.43180838062625    2.13501366440055
C         5.66278490992504   -1.68944255370740    2.55971492797940
C         7.00505654586823   -2.03315455883763    2.63367140745438
C         7.96408353245938   -1.10258002739248    2.27177891304840
C         7.59001843744764    0.15720189001729    1.84270400975729
C         5.95278788111093    1.94359513695790    4.55610598446548
C         6.89589088399147    3.01894368750284    4.90991148674766
C         7.84826691177974    3.45997876737272    3.97305327394437
C         8.75098319888431    4.45711022587690    4.28715715740578
C         8.73964898468067    5.04678282673128    5.54401446181328
C         7.81491772811656    4.62177279331523    6.48324077061830
C         6.90812186109935    3.62545528268311    6.17204418876947
Ti        4.96884976891518    2.85975954896215    2.98898174532008
H         3.48106341156670    4.16159357507446   -0.65470770897580
H         4.44618932843522    5.63205636913798   -0.54582904724713
H         5.24683810389010    4.06215270032603   -0.59263803729428
H         7.13954211830752    5.99391942081618    2.44019512801483
H         6.00340698237970    7.14649962184577    1.73663597876996
H         6.64923772652589    5.83218981390480    0.74682625610918
H         4.93816031476807    5.51035740755446    5.61424024601136
H         4.73681235932711    6.92329305708696    4.57946387764953
H         6.27994146125052    6.06873713875377    4.61009397177902
H         2.99253119081444    2.19839082137921    6.19820087472106
H         3.71768401012843    3.81391353180678    6.26949398550431
H         1.97399737159900    3.63528797567336    6.08276846707146
H         1.61286528229962    0.31576327680566    3.11011630655433
H         2.75625507716316    0.28231254221860    4.46035000634659
H         1.20315472335299    1.10844337346854    4.63194427558373
H         2.69928066978810    2.15823914137935   -0.01637199711246
H         2.41438931317041    0.74087943492780    0.99603621511977
H         1.16555413660531    1.97603474763955    0.83256300948770
H         4.23525264036338   -0.16666433749415    2.08757377158217
H         4.90782242839895   -2.41247047997492    2.83668647514112
H         7.29828153677100   -3.01704804077318    2.96835159121191
H         9.01239593864079   -1.36205025019890    2.32009618839947
H         8.35436579084824    0.87004201451881    1.55662743805518
H         5.35151406312749    1.65000003861118    5.42783900754983
H         6.51200362995219    1.06089402958731    4.21520252120581
H         7.89033671542123    2.97845973457616    2.99632363195851
H         9.48035059809184    4.77411651482336    3.55348319547314
H         9.45024727376575    5.82234504193639    5.78840753145736
H         7.80673961915590    5.06571555861828    7.46891584136444
H         6.20736194381096    3.28785279828617    6.92560475514309
H         5.03353548565482    1.79889312635414    0.60486638403689
H         6.66534073423938    2.44251023092076    0.93938270397911

