78
CSD_code = OHUPUD | q = 0 | S = 0 | Stoichiometry = C32H40ClN3NiO | MND = 4
Ni        1.16083599849422   13.44544287163137    8.12857896364018
Cl        1.14173665407156   12.49113166543654    9.93033311415325
N         1.21159666138016   14.29907460054389    6.54031447669804
N         1.45280766376649   11.87641531039097    6.96584375665382
N         0.88994462695962   15.18557629221836    8.80917316313972
C         1.42963738295520   13.59298176016078    5.42193981347597
C         1.48951499640043   14.23677716108290    4.18858828855445
H         1.66698059729804   13.67567165551980    3.28487231724081
C         1.31482945688643   15.61327449490998    4.14879824869525
H         1.35609190080847   16.13183594637677    3.20281248127052
C         1.08903375160682   16.32078129309416    5.32239321033998
H         0.94978743124605   17.38958330755078    5.33676282054905
C         1.04577355082084   15.61518246805818    6.51673027832106
C         1.56243218046229   12.16804259681908    5.71405017375032
C         1.81616962844286   11.18091161864324    4.62282641892631
H         1.90917981381584   10.17588213854990    5.02816180923921
H         2.73475013602835   11.44388279851458    4.09856167607848
H         1.00323478180094   11.19913053933077    3.89754840583715
C         0.84994641138412   16.17672428968001    7.90139649882447
O         0.69803800589230   17.37023313161573    8.11741300659853
C         1.47002666010096   10.55017446671250    7.43729236652205
C         2.61825840755257   10.07830245008464    8.07948557460553
C         2.61605133469547    8.77462718024296    8.55209790434366
H         3.49668325071744    8.37750980702833    9.03075630575937
C         1.49221699081231    7.98239055491526    8.42692562498156
H         1.50098124809445    6.97080976848623    8.80427675993277
C         0.34402632649869    8.48413969067290    7.83965904089280
H        -0.53089179090737    7.85777345619527    7.78475187192080
C         0.30737310274548    9.77102168194472    7.32744635896074
C         3.82560354544494   10.97397171889263    8.23278899000026
H         3.50403641733183   12.01474365557805    8.06377853993114
C         4.88886902469681   10.61712064096020    7.19151511324741
H         5.22616358858426    9.59251924795935    7.33351290009630
H         5.74713745982993   11.27848564623011    7.28738135942113
H         4.49380063309249   10.70922879086894    6.18118056909500
C         4.39755932479479   10.91192794507178    9.64760355448877
H         3.60910055868973   11.12251357009801   10.36530661725332
H         5.17952013862883   11.65935566661391    9.76064782641354
H         4.82669623373705    9.93756411199686    9.86475695333744
C        -0.94888868831236   10.37431271798953    6.73273282912393
H        -0.67574202863663   10.93633191070547    5.83115139744191
C        -1.98688957741768    9.33343680153473    6.31647644488540
H        -1.54383454768873    8.57731527919954    5.67154948530476
H        -2.79107542738311    9.82106229449957    5.76910418375275
H        -2.42261663037801    8.84777751838372    7.18556118343096
C        -1.56848635731505   11.35649920862137    7.73427815569722
H        -1.78585090596908   10.85206338188677    8.67234606821553
H        -2.48982038810406   11.77458101323964    7.33404946914707
H        -0.88323558369229   12.18993429303008    7.95523874986648
C         0.79729830859526   15.53724854393229   10.17472148008741
C        -0.45925332980353   15.70801048323179   10.76481198771093
C        -0.51469177218279   16.12922954316248   12.08436542016637
H        -1.47230518717159   16.29410016800785   12.55449281778587
C         0.64317298188970   16.34508518212783   12.80722118341061
H         0.58310376015324   16.68285228677896   13.83193428428663
C         1.87881228407793   16.11449037413422   12.23019177813972
H         2.77268316143577   16.26760094084689   12.81493106361410
C         1.97726546865314   15.69703011025755   10.91325590754619
C        -1.71450768899559   15.44526608026959    9.96860034720602
H        -1.42777548609491   14.91550798720882    9.04949506042401
C        -2.36968252831293   16.77144950145896    9.57822067527930
H        -2.69800869671256   17.30689776454904   10.46635549064447
H        -3.23309534913128   16.59774568142275    8.93827472059029
H        -1.65600790583276   17.39613452353160    9.04579618397263
C        -2.68559618714405   14.54219550224948   10.72925253965826
H        -2.17849513455214   13.63208857176280   11.04147111049060
H        -3.52223152366956   14.27229714758633   10.08731465672510
H        -3.08181652662300   15.04019416590429   11.61021363020970
C         3.31143059618048   15.42882594826294   10.25714918480044
H         3.13139270076088   14.77679588573375    9.38209626507203
C         3.91620530882591   16.74534662655041    9.76412548782866
H         3.21461908380810   17.26761702635778    9.11753028635437
H         4.83607935891538   16.56246717007233    9.21089974658729
H         4.14248024145424   17.39159875838889   10.60978915719570
C         4.27687273022112   14.68571671063185   11.17820902075511
H         4.59499221903654   15.31091433454156   12.00850055827451
H         5.16456013688596   14.39021672411157   10.62167235338045
H         3.79910502464219   13.79204584722179   11.57185648172780

