51
CSD_code = OHURUF | q = 0 | S = 0 | Stoichiometry = C18H26ClN3NiO2 | MND = 4
C         9.99396930487148    4.18908470699733    5.46811011582702
H         9.19428043113619    4.65760349852406    6.05099662181290
C        11.10429314982833    5.19604639789100    5.10664139468473
H        10.86203182458255    6.21712387114096    5.41332381911295
H        12.08433553530970    4.92614774017425    5.50350103463853
C        10.20217388796972    4.35597878961008    3.25190881935467
C        10.08463558686946    4.09635690984563    1.79101443103311
H        10.97274746724501    4.47123016108732    1.28319996419253
H         9.20855945669600    4.62881152229522    1.40178296944819
C         9.93002733278799    2.61319815101349    1.59234763870537
C        10.52861654185832    1.76613053589353    0.68747903975838
H        11.22521748410805    2.04107467221570   -0.08073669134792
C        10.03787248626913    0.47623481559177    0.96161639504202
H        10.29347340101333   -0.43228639938696    0.45140466812082
C         9.17399061518501    0.60200504592548    2.02596105531192
C         8.37234099307288   -0.44472616189599    2.75264218422304
H         8.29741112491302   -1.36135073463053    2.16794281647359
H         8.84365849811587   -0.68402767179334    3.71358433024847
C         7.01125533452252    0.09921584835892    3.00145694933572
C         4.78732920690493    0.10282809897713    3.05133779908568
H         4.30272462850648   -0.31965434372511    3.93660863016241
H         4.10502792966464    0.03623503470058    2.20228193461374
C         5.32556436889636    1.52801567725129    3.29504304943212
H         4.97064789310115    1.94646358619534    4.24149065786340
C         5.00380202097576    2.52166973372209    2.15607350427383
H         3.91211783846809    2.55370105368453    2.05994497574395
C         5.61557816569683    2.08260319338505    0.82607838378384
H         5.30124911616500    2.75943839054041    0.03531515612537
H         5.30748547666384    1.07688292535773    0.54945721962628
H         6.70295685394569    2.10706882706350    0.88325295226692
C         5.51350156134181    3.91166235632877    2.52784496320494
H         6.60342307828491    3.87199156342808    2.71004992407459
H         5.03164152088518    4.27365111565043    3.43265767553277
H         5.32814180739700    4.61619773878651    1.72085205622074
C        10.45527947653110    2.92458587295071    6.22060726254823
H         9.56785631675154    2.27983995464234    6.28524749653560
C        11.53958098724428    2.15767635758290    5.46616517098359
H        11.19380589365382    1.88124875272539    4.47076500594222
H        11.78217859759891    1.24416951106898    6.00377714921928
H        12.45306272904478    2.74126690265963    5.36832734738531
C        10.89892989094401    3.28087422922588    7.63534811229350
H        11.77068273029485    3.93214195219946    7.62142212666066
H        11.15779515182756    2.37770359638630    8.18201764853988
H        10.09775746814985    3.78621498133128    8.16887936023952
Cl        7.01549860228625    3.15379132944817    5.52311450239336
N         9.47248203444821    3.81885954032912    4.15643948422233
N         6.76345581393096    1.29884877577457    3.36947768310966
N         9.10603032093382    1.90457341771372    2.40679767335489
Ni        8.08390559450467    2.57242524687048    3.82770637229777
O        11.17261289308852    5.15948982623614    3.67907486461978
O         5.95220357549879   -0.67401689737849    2.76466630163704

