54
CSD_code = OHUSUG | q = 0 | S = 0 | Stoichiometry = C22H25I2N3PdS | MND = 4
Pd        9.86234897758792    5.31434352287765   21.51946635279868
I         9.29210579251951    4.80005411106524   19.02547895396768
I        10.46719552663594    5.96422808515122   23.97855935441130
S        13.00209679822429    5.03027582610234   20.83915174812273
N        11.80438596096917    7.25337580684625   20.57966695870084
N         8.07678105854157    4.52966780755035   22.13775690291661
N         6.78049826700547    3.15822405932524   23.24400882235095
C        11.57920912831584    5.99343847383954   20.94696996052069
C        13.10402336129903    7.53480853858086   20.18933685792198
C        13.66349640489754    8.73173899087468   19.75216640096506
H        13.07895987283410    9.63202217892041   19.67194215175800
C        15.00179646941806    8.75982674792066   19.41306820621019
H        15.43564209616082    9.68766429122563   19.07334883233770
C        15.79884262835008    7.62350175841257   19.49891412644007
H        16.84105164041826    7.67695174483482   19.22643618180585
C        15.26325015864473    6.42706019078584   19.93079063501486
H        15.86121278747722    5.53308520778815   20.00529814243737
C        13.92200146499851    6.39891880925530   20.27037261566160
C        10.69544950147635    8.21633995054255   20.62090688373085
H         9.80941064651435    7.63609797784433   20.98126745070979
C        10.36536728585265    8.73400432197395   19.22405529223870
H        11.16230812107484    9.34640458015408   18.81386917405095
H         9.45999936540015    9.33338966073942   19.27167988426899
H        10.18622828347419    7.89916784122809   18.54896165529188
C        10.96841969282189    9.31815045589165   21.64079817397291
H        11.18426246147191    8.88175438171110   22.61441392650145
H        10.08417152758121    9.94267649666828   21.73672729600181
H        11.80465592247784    9.94681544564175   21.35068482647468
C         8.04703222075827    3.50982115065648   22.96646506350823
H         8.90810833650176    3.00765754980117   23.37830537264214
C         6.78679013821348    4.85301429362013   21.86191716345906
H         6.53254212402359    5.65515177916090   21.19325728236596
C         5.96836802802024    4.00430662586847   22.54833815782213
H         4.90136603627527    3.94270073853440   22.60287276777396
C         6.37942501275897    2.12721673848685   24.13250030051292
C         6.45000818078763    2.36025679030364   25.50643443081051
C         6.06386356307197    1.33851528789813   26.35974836506656
H         6.11155209106924    1.50039443135224   27.42660899806656
C         5.61982284631774    0.11522612217842   25.87492019965981
C         5.56359139328245   -0.08272054790960   24.50250364157056
H         5.22307597460669   -1.03181596100628   24.11500484667003
C         5.94129800118544    0.91091251085283   23.61185889946415
C         6.92823514436698    3.67760011972042   26.03449391814461
H         7.99524364325639    3.80770249201979   25.85376785558374
H         6.75835516268944    3.74367905694496   27.10521512764536
H         6.41061872136832    4.50420769323363   25.54885466961831
C         5.19019604039315   -0.96151400638191   26.82245653340702
H         5.22681195790525   -1.93778188749393   26.34605341539796
H         4.16564677049919   -0.78048798196304   27.14853671929614
H         5.82441688383272   -0.97372908378524   27.70585897380528
C         5.89030536499542    0.69154992217862   22.13062587859766
H         5.11827649669969    1.31160786590127   21.67490459921544
H         5.67008964149403   -0.34819053801456   21.90581118078247
H         6.84008902315258    0.95353157412442   21.66538787156692

