40
CSD_code = OHUTUH | q = 0 | S = 0 | Stoichiometry = C17H16Br2N2PdS2 | MND = 4
Pd        1.78311673365314    4.32129321837064    5.33011747289603
Br        0.11213793353192    2.59149609631463    5.67344391100603
Br        3.46798033902450    6.03780318975497    4.94140853195828
S         0.41442183151320    6.01090305276482    7.75546909670175
S         4.53212520452893    1.18869552753385    3.36988560351000
N        -0.16614725279107    6.43591337628157    5.33080888242736
N         3.06687955487392    2.90338338643053    4.59342747741727
C         0.60592060167953    5.65529205084584    6.08176442858453
C        -0.95326241608732    7.34118820523823    6.01580912281440
C        -1.85222174134751    8.26726373029665    5.49879160716893
H        -2.01537154769379    8.35109711221357    4.43642853301556
C        -2.53518579357271    9.08155770998126    6.38021708649531
H        -3.23698224015778    9.80455966682459    5.99436791827981
C        -2.33751328482826    8.98716829987294    7.75494851183659
H        -2.88740109314740    9.63622557495735    8.41814998892669
C        -1.44607583293926    8.07257310527430    8.28093544275880
H        -1.28257780494078    7.98953977841090    9.34311122237462
C        -0.76030094427379    7.25419378201446    7.39981318361625
C        -0.20572454225777    6.28533795630470    3.88629905849071
H         0.74484088576965    5.81323478615530    3.56280854346534
H        -0.26978493258763    7.27810900391410    3.43307843216015
C        -1.37554022604781    5.39882449465204    3.45013872252303
H        -1.32416333568792    4.45281356982103    3.99636133494256
H        -2.32193748911642    5.88316321486350    3.70023135184048
C        -1.30654526336056    5.11897163955554    1.95542138068094
H        -1.34341547602040    6.04377850613979    1.38306984665230
H        -2.13991913799779    4.49132194431636    1.65307254716256
H        -0.38176157579243    4.59894561652428    1.71293879276580
C         3.31236032650720    2.41272679689631    3.42937641863626
H         2.80833050071314    2.72100167836935    2.52965168501246
C         3.84468352055846    2.33738893426806    5.57099143108056
C         3.80841414629159    2.65942384383523    6.93009870179615
H         3.11462294012205    3.42747753426880    7.30063224731779
C         4.66117395026438    1.98892551395896    7.77851206766857
H         4.65376380307287    2.21719139389310    8.83305652493934
C         5.53766509969193    1.01542797410637    7.29600859402217
H         6.19307504972900    0.50744836183929    7.98649538712852
C         5.58497887500921    0.68739891843459    5.95595317539136
H         6.26243337606236   -0.06488868053592    5.58488635367185
C         4.73080725798840    1.35563013505540    5.09271938087207

