41
CSD_code = OHUTAN | q = 0 | S = 0 | Stoichiometry = C17H17I2N3PdS | MND = 4
Pd       10.07092333913222    3.22378644769449    5.86589894034762
I         8.13508207222571    2.01528374631662    4.60376866224710
I        12.09578831880964    4.29902419968126    7.10770774928837
S        10.80243991771319    4.84901052428060    3.19934044368702
N        11.83094136504050    2.57379128080816    3.66205590939588
N         9.01465377560477    3.09955293567109    7.64178012234510
N         7.87146074429268    2.94689643795684    9.52348514852762
H         7.52681852113808    2.56101566657317   10.38648049273022
C        10.98928826109831    3.45658276330479    4.19387342156412
C        12.37719422401824    2.93940536476782    2.44179012238709
C        13.27704113809246    2.25675134175531    1.62872584031403
H        13.66698970212203    1.29209510883019    1.90425704857774
C        13.67658663149773    2.83495358216237    0.44001474652469
H        14.37369433805966    2.30495838291785   -0.19053967300968
C        13.20226686797549    4.07923133475982    0.03953271932617
H        13.53241328439139    4.50458374844683   -0.89497230481383
C        12.31073047800399    4.77348406038781    0.83210886095210
H        11.92933765190776    5.73967328560402    0.54363067332087
C        11.91059917149949    4.19341230733849    2.02284549969189
C        12.10713468184884    1.32279881723528    4.38370924115545
H        11.49391536457626    1.37137699992664    5.31858505611221
C        11.62680714863599    0.11408264695216    3.58569586106642
H        10.57585058114930    0.23045763150534    3.32688811001220
H        11.72983445526888   -0.77903096734257    4.19643411541293
H        12.19453290544376   -0.02727612306297    2.67120814993389
C        13.57270915812182    1.24747273882597    4.80198619729346
H        14.23988313459473    1.16683393580084    3.94927115217976
H        13.71766839882219    0.37706668983593    5.43649557846750
H        13.84466871703222    2.13382846660803    5.37248438390155
C         8.75743751617933    2.36089622421288    8.68114202664825
H         9.18821926989019    1.39347945975652    8.86815481952831
C         8.26691177679343    4.24608871787874    7.78075044988724
C         8.17554002171326    5.35812772394772    6.94383410038528
H         8.75060735526752    5.42014552276136    6.00884442579565
C         7.33213429656832    6.37010131872689    7.34738798157347
H         7.22717909608010    7.25202412743489    6.73425950112045
C         6.60360025343470    6.28406910853879    8.53812151438677
H         5.95587981320403    7.10351934452608    8.80996499042018
C         6.68560983560252    5.18809574671837    9.37341084389785
H         6.11868322384182    5.13126759299849   10.28960816358532
C         7.53154319330575    4.16248175695505    8.97887891383414

