40
CSD_code = OHUTIV | q = 0 | S = 0 | Stoichiometry = C17H16I2N2OPdS | MND = 4
Pd        4.64853884884316    7.63139961327435   14.56033241138476
S         5.43674837095020   10.55655775185921   13.50885692377189
I         6.10379970886289    8.01026565983650   16.68886366558439
I         3.28323131325973    7.23343880355426   12.37618669404045
N         6.86576363145423    8.53394092487731   12.94693202562227
N         3.36373363312879    6.39707612569903   15.62058775740239
O         1.97912254880906    5.08434071115748   16.74491729881984
C         5.76211574062649    8.87049479683501   13.60714977687291
C         7.52240651913200    9.58397068821328   12.32349171342658
C         8.68755597430277    9.57871600320200   11.56256037844062
H         9.23428733451156    8.67115276508688   11.37351463983934
C         9.14981483560858   10.76998511139795   11.03906763271765
H        10.05324684002554   10.76602895382528   10.44911392620575
C         8.47947385340580   11.96914199288524   11.25444949473486
H         8.86527868939264   12.88324591175431   10.83169416483404
C         7.32253952726745   11.99609639487051   12.00663186514010
H         6.78570731435486   12.91326035577472   12.18731855169100
C         6.86023635040590   10.80208928231980   12.53122171414962
C         7.29046291419396    7.12576932431745   12.92687772135601
H         6.52730458147967    6.56975363440452   13.52845060270346
C         8.63602952980830    6.95295256362073   13.62530957231502
H         9.44440188903618    7.43667123852503   13.08592632860174
H         8.86173804524558    5.89292553364062   13.70591620702202
H         8.59201897406764    7.36929244836090   14.63023897286896
C         7.24928915916758    6.56527071917916   11.50828700829644
H         6.26146723355146    6.71425600058677   11.07575077342676
H         7.44851183471731    5.49749874685959   11.54156976064252
H         7.98423802754120    7.03232076281838   10.86018356078827
C         3.08570710819573    5.19772154167782   16.00540266127368
H         3.65321128501241    4.31118011627359   15.78699191184065
C         2.36069459606075    7.19238654832917   16.13761422704763
C         2.14522223359872    8.56487565901897   16.04358408114402
H         2.82979087165372    9.21840626159552   15.48582291749734
C         1.02760565515296    9.05160941710689   16.68851237404822
H         0.81118876152812   10.10811291383903   16.64926046224387
C         0.16348675579860    8.21031320125528   17.39453757288119
H        -0.69753805341230    8.64245458456193   17.88072941697689
C         0.37028478837392    6.84686372082118   17.49192199253600
H        -0.29826370362885    6.20129800120935   18.03657339472617
C         1.49004647857123    6.35136521558427   16.84754784508986

