64
CSD_code = OHUVUI | q = 0 | S = 0 | Stoichiometry = C26H26CrO11 | MND = 6
Cr        1.00294150863171    4.72783867345696   16.10488092459354
C         1.34823090618970    6.52852715493532   16.45374265460262
O         1.55974408001602    7.63945356223141   16.65811770650094
C         2.10505860753973    4.33065641470094   17.56621488160098
O         2.78833522822128    4.24438765185482   18.48407909695879
C        -0.03037225465029    5.42728286899577   14.70260232182787
O        -0.58372468714903    6.06745511521556   13.92601604181531
C        -0.46788730632793    4.78920151681048   17.25914308438950
O        -1.34339566203650    4.85519155862761   17.99659135935351
C         2.51504572126109    4.72045496716569   14.99857347312749
O         3.47934218728625    4.83868236310081   14.38645257700240
O         0.65666449403713    2.41707379529113   11.14013143736526
O         3.45267656898579    1.84201805544728    9.83576294643543
O         3.40164883570252    1.80306173449764   12.12003749159054
O         0.72218764758944   -0.63644042719770   12.17083929214061
O        -0.82848941026091    1.01922969313013   12.20506254544458
O         0.38009007881563    2.07512904510839   14.67950518336368
C         1.01528293963710    1.63152865872042   10.01856464969539
H         1.03852824552085    2.32074156050274    9.17348778145939
H         0.25990985524391    0.85807308444205    9.84329790612361
C         2.39913254727315    0.98251093606398   10.19249872763486
H         2.46924110136614    0.09237892122726    9.56116163079610
C         2.68211573046955    0.68156736370693   11.67401006820817
H         3.28821837785659   -0.23182603510506   11.77534745717120
C         1.42497498823931    0.52602668192252   12.52340845635398
H         1.72672537096731    0.50235295085311   13.58018006690830
C         0.41127380849632    1.67567757207270   12.29950629782517
C         0.43087111954431    2.71807382283382   13.43046976163476
H         1.35452624896511    3.29936977004859   13.32630660348212
H        -0.43764572828869    3.37169898318885   13.29533343133047
C         0.59708941482222    2.75767640971157   15.80401016392896
C         0.60694278932697    1.84909124101517   16.92670077040077
H         0.38797745930743    2.28794824922357   17.89130713641368
C         0.95215923094002    0.54330391092926   16.84848168921585
H         1.22303813543694    0.14278552879109   15.87904780605125
C         1.05140213079406   -0.39596331485001   17.94068448771544
C         0.84590463804900   -0.04102955003592   19.27872240005534
H         0.62093000456759    0.98210649083955   19.53651839203072
C         0.93898344702282   -0.98654924968728   20.27960060884953
H         0.77975829079770   -0.69555002539912   21.30740461908458
C         1.23805339536795   -2.30573634814069   19.97424760963568
H         1.31057577028810   -3.04123491628909   20.76125933194687
C         1.44750673959855   -2.67422949226990   18.65470684805291
H         1.68311725240034   -3.69977809458428   18.41117237196810
C         1.35889658524575   -1.73117657289807   17.65098319368008
H         1.52242952716063   -2.02319210757168   16.62318120758731
C         3.94629152433867    2.49463737799463   10.99624604175723
C         5.47209838429008    2.38197724458154   11.00169519498258
H         5.86608633505538    2.86086483495023   11.89227226475510
H         5.87048890703697    2.86359869818586   10.11459297898983
H         5.76223237005697    1.33466398297079   10.99807842867633
C         3.49738644193284    3.95592262746890   11.04221223387404
H         3.85598450242553    4.41299337792556   11.95895221876906
H         2.41191023748101    4.00566453744452   11.01466605742851
H         3.90513327639413    4.48325044130779   10.18523734776627
C        -0.66070455355659   -0.38402598830360   12.37156583099378
C        -1.46033208686811   -1.13585478784718   11.31104976282071
H        -2.50511308066820   -0.85310893805686   11.38681187204747
H        -1.35139297687035   -2.20356441520178   11.47058264037734
H        -1.09400979590438   -0.88694908217888   10.31920714735458
C        -1.10300794849899   -0.79367302631851   13.78069264742822
H        -2.18138991131229   -0.69972214225527   13.86036807522520
H        -0.64336700278132   -0.14485321705223   14.52038632527177
H        -0.81111058281418   -1.82367169824013   13.96392843810654

