76
CSD_code = OHUWIY | q = 0 | S = 0 | Stoichiometry = C39H24LaN9S3 | MND = 9
La        2.65586304954143    2.99968457240849    2.60438698587543
S         3.01511823467781   -1.54410249486605    0.89616342935946
S         4.28339084858790    3.95806612601277    7.03684476134589
S         3.71422657667434    7.52908725295319    0.79394933746859
N         1.57174530494879    2.31976904239141    5.08754017016821
N         1.78606892716381    4.97157407977348    4.40218949876627
N        -0.18561687704880    2.57192070237667    2.77596089396449
N         0.54118667385239    4.77232519749644    1.39695197718354
N         2.38903957407024    2.24730689490839    0.01425026498196
N         4.80723486181694    2.06058227666318    1.31745663550902
N         2.37637423380234    0.64949241113214    2.45216971549781
N         4.21953308969449    3.17101099930939    4.38694426414214
N         3.59033769920918    4.87342040349433    1.54901896919844
C         1.56935752237699    1.05562832039359    5.46221203607806
H         1.88953409890452    0.34164990808567    4.71355125670485
C         1.18267686359178    0.62447828476409    6.73282322645651
H         1.21497235979177   -0.42530679046983    6.97823599608288
C         0.76834189004904    1.55983922755943    7.64862740450876
H         0.45370361572815    1.27513851502289    8.64253963837859
C         0.78171195263721    2.91616605213864    7.29143902927430
C         0.40920002433905    3.93694102774975    8.21062717732938
H         0.07718334158430    3.63952503779870    9.19457564087824
C         0.50376450594951    5.24149657549606    7.87048881682492
H         0.24842855790141    6.02086680727098    8.57343595147403
C         0.98225122642182    5.62881366879559    6.58692973522410
C         1.16480733357895    6.97727630539065    6.24648313420309
H         0.91936485877910    7.74558899946333    6.96570217907813
C         1.67962391458251    7.28769477942047    5.01314284365749
H         1.86604173190252    8.30769494303397    4.71717975710435
C         1.97209930797691    6.24790592294886    4.12843105039724
H         2.37753254260968    6.47761950074856    3.15292228341341
C         1.32374052443737    4.64739840580103    5.62646505689366
C         1.21548800980007    3.25511274915984    5.98737247717149
C        -0.63630905217851    1.48032307231725    3.35448826374348
H        -0.23134253142359    0.54761346938122    2.98352735207113
C        -1.57349639493996    1.48892662628754    4.39531173032363
H        -1.89820143866703    0.55932513613758    4.83587844513242
C        -2.04627035507493    2.69433110968736    4.85278687042026
H        -2.74518301946529    2.74853588331852    5.67561278449517
C        -1.63126355358615    3.87678989786932    4.21799112192867
C        -2.10877376491631    5.16601895430985    4.58932894736170
H        -2.78222418349730    5.23691714730360    5.43109366739485
C        -1.74653666645216    6.27035873692740    3.89358266866780
H        -2.12321762716827    7.24526862935097    4.16712344200314
C        -0.87289448352055    6.17954237948600    2.77244644183136
C        -0.52423634611322    7.28703545818865    1.97975423327505
H        -0.91689388426030    8.26332526295926    2.22521945292915
C         0.29406426104512    7.09942428189873    0.89270891314326
H         0.56903984757050    7.91817014129061    0.24797600509148
C         0.80000892480046    5.81812470872324    0.64223729747542
H         1.44349089023396    5.64303879445454   -0.20913208587401
C        -0.31522503022563    4.92916937979557    2.42426729230157
C        -0.70255699264786    3.75466299969775    3.15903389852760
C         1.22332737887318    2.28978411065979   -0.59871866821169
H         0.44874556568598    2.86088800156948   -0.10208676340567
C         0.96340148431091    1.64970570543712   -1.81363008204847
H        -0.01662908978520    1.71645608890285   -2.26006365956350
C         1.97175963624609    0.93749729158573   -2.41406758116262
H         1.81704878715390    0.42155531264757   -3.35091088870610
C         3.22639809263737    0.87082088060201   -1.78891389198307
C         4.30639992449279    0.13419002137263   -2.35264257121892
H         4.13930036393804   -0.37619276011913   -3.28974831858534
C         5.50138644915325    0.06426316969429   -1.72404205703925
H         6.31990609803429   -0.50128699736143   -2.14453491230876
C         5.70870613378991    0.71901174161102   -0.47707738028221
C         6.93268972215640    0.64239863101877    0.20718991955737
H         7.74771377834152    0.07950733654351   -0.22523360701421
C         7.06549229942359    1.27941851579836    1.41547813460977
H         7.99046601603922    1.24283306154029    1.96930878297619
C         5.96827786968549    1.97570788575011    1.93369932514145
H         6.03892297449342    2.47915450370412    2.89145018114756
C         4.66128405249456    1.45738099992137    0.12276004182854
C         3.38911767933750    1.54595151575762   -0.55511202809382
C         2.65898069578982   -0.28682663519237    1.79404516853234
C         4.26508922159964    3.51294069621370    5.51321698500165
C         3.67820988667839    6.00147314836422    1.22668553390499

