61
CSD_code = OHUYOG | q = 0 | S = 0 | Stoichiometry = C29H25N4O2Y | MND = 13
Y         9.98358199603988    6.85932736765481    4.54635346279899
N         8.86223423834936    8.82079284271327    5.27749483982501
N         7.71951108563933    7.09147724341101    4.41423586699093
N         6.93723157939658    5.21237891829690    3.26311392805112
N         8.13366721059136    3.40360112623270    2.53136612028321
H         7.27451118225043    3.18166266896654    2.04227115720683
O         5.48805817317805    6.84369324134700    3.86228786840499
O         9.07794185613295    4.85486239754073    4.00592127430133
C        10.22900823927820    6.35120169971784    1.67037196571343
H        10.05497341578308    5.41900393700285    1.15281983730379
C        11.36467230541614    6.65432148135719    2.44411954420737
H        12.26739066432384    6.05497421922592    2.49790825164933
C        11.24643269211245    8.01898637961108    2.87402013050200
H        12.06581826404969    8.63576436378919    3.23387609244528
C        10.02352296079883    8.51246272211544    2.34548910332703
H         9.67968030584763    9.53564433236691    2.40825113425878
C         9.40685847764432    7.48457101397695    1.62521455813191
H         8.47268879514351    7.56924732385659    1.09203953231066
C        10.39497703067193    5.51894902218800    6.69872309292022
H         9.71716155922821    4.75268695796385    7.05158643300905
C        10.41929675333110    6.86372114612369    7.12794660318905
H         9.75537692705049    7.30573304347959    7.85908778988563
C        11.55620140471702    7.48196053277567    6.56585392308864
H        11.91658862325696    8.47438239281163    6.79917277316539
C        12.23872905233338    6.52074493802269    5.78864849895830
H        13.21845970150785    6.64699789460317    5.34675835871998
C        11.52148012679576    5.30443858537179    5.87079185339541
H        11.86222873850630    4.34310755134355    5.50939830350913
C         7.63124001731829    8.34595142640636    4.96741891291191
C         6.47698981340660    9.10481431931121    5.21250310304651
H         5.51336373938636    8.69947301022344    4.95423031443538
C         6.61195195768299   10.35493943897469    5.77340698765112
H         5.73525734272117   10.95483726895539    5.96871254359889
C         7.87933523796529   10.83892336797220    6.08559678937195
H         8.01314070441968   11.81499634110458    6.52314345341278
C         8.96650492746513   10.03262187585325    5.81924744203555
H         9.97400431047123   10.36186396527254    6.04399152059288
C         6.64619612295758    6.48296018973643    3.90033635199645
C         5.83336561463562    4.72063496154557    2.48854007692243
C         5.69701130693224    5.11609337796877    1.16443549825950
H         6.43026472864644    5.77899632227430    0.73047983414229
C         4.61907764807774    4.66337772218105    0.42411453095868
H         4.50803068799436    4.97331415098894   -0.60387760492062
C         3.68155322188146    3.82392451599384    1.00303137381333
H         2.83819513538103    3.47805742704919    0.42475074193889
C         3.81803717399042    3.43697428832211    2.32586527898298
H         3.08154717840883    2.79178861509239    2.78036052948099
C         4.89356376918336    3.88353420200557    3.07396582959642
H         5.00443912154356    3.60122519924494    4.10977501313961
C         8.11169293015273    4.52291973240833    3.30314497868759
C         9.18840458997406    2.51263726762794    2.28656036848488
C         8.89251707898572    1.38190099455797    1.52689412634427
H         7.88304117445285    1.22833331617319    1.17032630753018
C         9.87936219064105    0.46279200067762    1.22777549553743
H         9.63602436302848   -0.40902298001832    0.63920188805921
C        11.17387524563262    0.66036811999826    1.67902391208245
H        11.94532358944834   -0.05705567967203    1.44515782675752
C        11.46968886247651    1.78555708375833    2.42852894044626
H        12.47745760903985    1.94970593160560    2.77937307463958
C        10.48905786941002    2.71241013496078    2.73585477524566
H        10.73150137693071    3.58695674760079    3.31710748726558

