55
CSD_code = OHUYUL | q = 0 | S = 0 | Stoichiometry = C27H21IrN6 | MND = 6
Ir       17.36739243802608    0.43259874971594    7.73930776795016
N        18.08449289620074    2.32431783995330    8.37139348815411
N        17.89945260146469    3.27308579375088    7.45274919312534
N        15.40096505214141    0.73260815358522    8.46996420019693
N        14.58927229058440   -0.28596937881732    8.18334935251929
N        18.03884116517389   -0.59407150562859    9.46761030515736
N        19.29336739592599   -1.02974022681574    9.34675760621288
C        16.96170488521826    1.54824049216164    6.09663395049554
C        16.37644714136223    1.19246650109478    4.88076368951240
H        16.09635691576530    0.16184677341329    4.71626636016552
C        16.14963377321512    2.11626759226404    3.87427252088082
H        15.69332194314883    1.79973975677440    2.94711228972885
C        16.50472550349398    3.44424358882372    4.04529218532810
H        16.32922539401472    4.16489192749330    3.26030589785114
C        17.09030626017166    3.84567855790047    5.23076368982684
H        17.37156630461887    4.87938269344590    5.36829740194967
C        17.30942978648604    2.90720622045889    6.23015563515806
C        18.33056271850344    4.46367456733227    7.90763954439391
H        18.27659902547036    5.36197565060169    7.32855759259741
C        18.81354621556161    4.26472321551567    9.18357645594058
H        19.23376908064736    4.99712752475373    9.84165673295465
C        18.63586487971612    2.90229437362754    9.42627709949024
H        18.88173187259437    2.33765183156960   10.30466285878448
C        16.46044709960855   -1.24649344845954    7.05709851317381
C        16.96639084405216   -2.30969951315107    6.30809739057079
H        17.99696317192306   -2.27854623408410    5.98475470065873
C        16.18808067612519   -3.40062313972158    5.95887260276681
H        16.61835032720921   -4.20359469120195    5.37736877646397
C        14.86026719768422   -3.47056151791998    6.34730141891410
H        14.25260765122072   -4.32055500628634    6.07421814028988
C        14.31179172856523   -2.44079932239156    7.08772160532916
H        13.27613164737775   -2.48890301106451    7.39043031631153
C        15.10603491850629   -1.35482143301944    7.43021443731353
C        13.36791606365296   -0.08112401983923    8.70914930468778
H        12.56250365152115   -0.77688543812205    8.59782223130061
C        13.40266747810372    1.12980696473371    9.36744948275944
H        12.60407975393239    1.60408506435709    9.89978345712442
C        14.70365835290719    1.59999078241172    9.18563903051721
H        15.14518969357975    2.51150968885580    9.53918984183015
C        19.22906727544579   -0.10690101534880    7.14728618374179
C        19.89858671436915    0.11759173467821    5.94364985389015
H        19.38416128599364    0.63615147403189    5.14734057763302
C        21.19901708013795   -0.30972640860485    5.73341639072045
H        21.68190876434772   -0.11577163523650    4.78618490191580
C        21.88642206510147   -0.98638764000744    6.72759273824756
H        22.90001444018353   -1.32123890542362    6.56374452469306
C        21.26549645648104   -1.23553412229570    7.93666518262651
H        21.79595700204699   -1.76552587451228    8.71402220954563
C        19.96198545662715   -0.79931529631014    8.13158302908000
C        19.69794804250076   -1.63002060682664   10.48087840163119
H        20.67388695822126   -2.05278544186291   10.59897596199281
C        18.64792868249156   -1.57222463492810   11.37250727345496
H        18.62189471285877   -1.95304277343166   12.37269462339625
C        17.62931758543401   -0.91141928630448   10.68512727704457
H        16.64195168228589   -0.66237598568843   11.02265380199640

