49
CSD_code = OHUYIB | q = 0 | S = 0 | Stoichiometry = C19H19Br4N3O3Zn | MND = 5
Zn        0.97282594040247    5.58200466026997    8.18371606613113
Br        3.51979049605284    7.38644796899710   11.20191182260475
Br        2.46131149775213   12.47294233433227    8.86518130094126
Br        0.51680676789573    2.89433817227321   11.98006651790624
Br        2.26911722488224   -1.61689057007370    8.99533284949722
N         0.43879731578497    7.01263635998214    6.54095630212562
N         1.10107767435122    4.31579246106640    6.64953471138214
N        -0.64153388601100    6.64390069457047    9.06701535747857
H        -1.11858675015385    6.02642438789154    9.71872060969383
H        -0.32351217612999    7.44701993945940    9.60581556234325
O         2.50331232451181    6.46948416242631    8.57175658704675
O         0.68815288951341    4.15650953631207    9.37955594545230
O         1.32655532455099    8.70787052483639    5.19283241780223
C         1.61643702942054    7.84174314487362    6.27188521244253
H         2.43348245162302    7.15963225713555    5.98736628079018
C         2.05583459460328    8.56425083906788    7.52526383681704
C         2.50026970086095    7.76890221712816    8.60449157196085
C         2.95430875397674    8.45932283078648    9.74557871159267
C         2.96239589057191    9.83398735095920    9.83878941699375
H         3.31667903592937   10.32042395632969   10.73420119723416
C         2.49420379645145   10.56925223766851    8.76215776212994
C         2.04045365124179    9.94524073791625    7.61353082556006
H         1.66969050801056   10.53043527442985    6.78518786352014
C         1.37645358409339    3.06558394586773    6.75880633318471
H         1.59127857134203    2.48668176916247    5.85373870973761
C         1.40251680472815    2.33818245968138    7.98065265265603
C         1.04698402579329    2.94282941079058    9.22495511015784
C         1.05833336690779    2.08443674357987   10.36269270556618
C         1.41500491865791    0.76620493102272   10.31588977516533
H         1.41364806305202    0.15854997349839   11.20793641965525
C         1.77597477857937    0.21910867497741    9.08034318754704
C         1.76312832817921    0.97742554617450    7.94040788122134
H         2.03398686116347    0.53462602374287    6.99315015799302
C         0.12311238744259    6.14080360671984    5.40671376262296
H         0.16616833503712    6.69976824440750    4.46456642240164
H        -0.89235350589081    5.76699107499808    5.54859751002913
C         1.06952716580088    4.93929346373687    5.35193700530455
H         0.73271191346454    4.24062621462415    4.57611080032701
H         2.08205475956794    5.26866811777190    5.09149726092989
C        -0.70954841870844    7.82474568190999    6.94712343773448
H        -1.32949275236220    8.09596887112263    6.08678524526028
H        -0.32641039663285    8.74577805811815    7.39093658448250
C        -1.53715691848488    7.08189039179735    7.99709569838907
H        -2.33458044038753    7.74108807448433    8.36091944735380
H        -1.99466306398555    6.19254292058539    7.55760772456256
C         2.45148937788816    9.08243281566912    4.43399780692882
H         3.20135610588851    9.59271220278781    5.04608848276686
H         2.08671592577520    9.76083749756635    3.66542658472283
H         2.91769016699723    8.20925180655988    3.96127456385364

