33
CSD_code = OJABEI | q = 0 | S = 0 | Stoichiometry = C14H15MnO3 | MND = 8
Mn        4.09047344816776    2.91133721201672    2.76173572386366
O         3.75715313248822    4.89913371768273    4.88980027825848
C         3.89346486185726    4.10137494696862    4.06780355903721
O         5.84646211070998    4.82155623281484    1.39563913176442
C         5.14751624414383    4.06812558266060    1.91216437830794
O         1.43880357753739    3.74715588030106    1.82038765782538
C         2.47921294576725    3.40951063080624    2.17694515750332
C         6.20367730619214    0.66434383405193    2.45886993115893
C         5.77221778533185    1.72354318760692    3.48629002799679
H         6.62337859293285    2.15073535502049    4.01937563461724
C         4.62065208393488    1.47612938161900    4.27348341462536
C         3.50657652951319    0.95824710230678    3.60121809045023
H         2.61705845392981    0.70270532797686    4.17155778800220
C         3.78552576252675    0.11647594271812    2.36014830813732
H         3.02830522630631   -0.66639891048664    2.25085027495337
C         3.72339265457881    1.06805912693389    1.18635166356340
H         2.74916525864803    1.20842510528016    0.72613905865505
C         4.82141139939119    1.63376143472482    0.64063439811782
H         4.72432820722491    2.23071662256468   -0.26226291498314
C         6.21616691450122    1.24475828663603    1.04031790031564
H         6.89002258102364    2.10265972105608    0.98374950773208
H         6.58408875579114    0.49928324766129    0.32455166552732
C         5.18646193305321   -0.48489178455085    2.47173439940986
H         5.37508020994848   -1.16025142207958    1.63398104754902
H         5.26877878919583   -1.05655308196215    3.40006537978385
C         7.59646233189108    0.14976216033067    2.82951496180044
H         7.89382508001723   -0.65597637546986    2.16072360449521
H         7.60496874468192   -0.23163438250950    3.84889963483955
H         8.33192355854951    0.94820434397234    2.75346113246226
C         4.57587961037056    1.78915659560049    5.74870628386874
H         5.25828205653938    2.59519083107238    6.01279067715108
H         4.88815569747813    0.89235806420170    6.28854712151998
H         3.57192815577603    2.05089608247307    6.07982512168974

