27
CSD_code = OJACIL | q = 0 | S = 0 | Stoichiometry = C6H14MoN2O2S2 | MND = 5
Mo        2.12517857377214    2.66094828018380    4.94985467561592
S         4.05118041483977    3.27289521386852    3.69038105655644
S         1.98647394943424    1.13962021941901    6.77714148886513
O         1.05644883993196    3.91224129074522    5.10132443477358
O         3.59596097351136    3.60533574270904    6.58769355446797
N         1.57123295467406    1.48310975387600    3.76027155988923
N         0.82190997274327    0.95389085094506    2.88651784090781
C         4.61269490414851    4.67093306321118    4.73534214757400
H         5.54551232681021    5.04713243470578    4.31641840062507
H         3.84255586100420    5.44529378328565    4.69804409602506
C         4.81286268664580    4.18045792177156    6.15478467907962
H         5.61452736277262    3.42170825032254    6.18084773011241
H         5.08419322934166    5.01269006355408    6.82398443726273
C         3.66821734986822    3.00080108866818    7.86372528524365
H         3.87771082557765    3.77083856583730    8.62355589824116
H         4.47972030927990    2.25224831619546    7.87671451890802
C         2.33872933262021    2.32529034006211    8.13069144010320
H         1.52864624018016    3.05844614823690    8.15064881082769
H         2.36457909085292    1.76693238239487    9.06598092104603
C         1.15660400373391   -0.28773802810725    2.22445291787213
H         1.26473658720482   -0.12908931286329    1.14869929255506
H         0.37529475486376   -1.03216110831564    2.39457810927893
H         2.09777671363499   -0.65418215781249    2.62997272977150
C        -0.40857378752641    1.60708088750612    2.49319936555227
H        -0.49975160752017    2.51644087356606    3.09358874019724
H        -1.26318328560512    0.95313617990812    2.67953535686032
H        -0.38153857679123    1.86639895612175    1.43245051178200

