99
CSD_code = OJAFOU | q = 0 | S = 0 | Stoichiometry = C42H50B2N4Zr | MND = 12
C        -1.54171033388096    5.03624274163944   -1.37216130314184
H        -1.59004552300355    4.24343995314677   -0.63060785948488
C        -2.19978599167279    5.01302325287014   -2.63633004629606
C        -1.97843093396469    6.31281834719580   -3.20821031074839
C        -1.25837886492111    7.12884654840244   -2.25184038092579
C        -0.92943684669471    6.29075022673961   -1.15016444694451
H        -0.49606075568451    6.62399874183426   -0.21414005309205
C        -2.40179199417728    6.88121983875266   -4.42838559404270
H        -2.91411188722423    6.26757246951094   -5.16243089835139
C        -2.24316635659627    8.23248864581157   -4.62149130606330
H        -2.59004317446110    8.69166312586097   -5.53625862956274
C        -1.67411448069592    9.04729652155342   -3.62688260774828
H        -1.63369081765525   10.11446407103395   -3.78863989877643
C        -1.17253822827074    8.51568817268517   -2.46408566556405
H        -0.74264258082616    9.15454492040792   -1.70482420833922
C        -0.64698846019111    2.92110281919413   -5.34613008166814
C         0.45629564301802    2.05728602700252   -5.19860795809800
H         0.91629031067960    1.96843943803325   -4.21801909229634
C         0.93949347494443    1.34673694468834   -6.27949517405927
H         1.78335742874126    0.68264771831023   -6.15130033097677
C         0.35323243689495    1.47364011911574   -7.53013409148735
H         0.73826043206488    0.91635278482935   -8.37031418002936
C        -0.72833652902770    2.32539403183265   -7.69262929160406
H        -1.18548818372529    2.43364955357084   -8.66586169757663
C        -1.22463352429259    3.04080852608459   -6.62213135478700
H        -2.06614245130257    3.70976305002286   -6.74399758798925
C        -4.67434731950235    3.08973178747837   -2.93903237900610
H        -5.35866611525770    2.27318228254901   -3.18540861636736
C        -4.50678499699774    3.11594467061269   -1.41757120898885
H        -5.48250923234327    3.09334516953336   -0.93738890020840
H        -3.98986747908895    4.01896956019344   -1.11116875409102
H        -3.93374324703726    2.25520062349122   -1.08408401643734
C        -5.31209179955008    4.39208765779959   -3.42756630795159
H        -4.68582680016406    5.23965640037795   -3.16573134129463
H        -5.43510330537980    4.36936705649024   -4.50756685612665
H        -6.28936425137958    4.52320922867700   -2.96894267451229
C        -3.33920631943858    1.56740686752102   -4.36106436006010
H        -2.33167280228203    1.51568876674709   -4.78082950415011
C        -3.50638292476793    0.35300185940493   -3.44058946456687
H        -3.31147010783191   -0.55701352529578   -4.00267391350188
H        -4.51088071277871    0.29061922542880   -3.02978330799471
H        -2.79682984908099    0.40975326769025   -2.61909848570811
C        -4.32718858527752    1.50971057461577   -5.53092393145266
H        -4.13115135701964    0.62559242494065   -6.13206812134558
H        -5.35766126738886    1.46752205942718   -5.18673853964822
H        -4.20682188796908    2.38747142273305   -6.15998649672690
B        -2.33428748915805    3.73595901801744   -3.58463313110370
N        -1.09601225689308    3.66618624678773   -4.27668758039461
N        -3.41314418681485    2.82616613899894   -3.63089745197627
Zr        0.06890711884095    4.99868637540746   -3.22844318562210
C         1.67939827519674    5.03638890202989   -5.08484202508479
H         1.72765985651063    4.24364292484699   -5.82646142858947
C         2.33753950244254    5.01305204590281   -3.82070827633096
C         2.11624568798446    6.31281081463417   -3.24871676846220
C         1.39617653222164    7.12893564584043   -4.20498814983550
C         1.06716241081141    6.29093560732278   -5.30671365105509
H         0.63374491138950    6.62426791451700   -6.24268828990198
B         2.47210743727050    3.73597139753250   -2.87243568823037
N         1.23391122964735    3.66624090286219   -2.18023273212322
C         0.78493210270955    2.92116615994531   -1.11076708567974
C        -0.31834906360151    2.05733637421649   -1.25824441394990
H        -0.77837127004905    1.96846955850170   -2.23882030218171
C        -0.80150907738634    1.34679871444661   -0.17733225716523
H        -1.64537284333464    0.68270260629278   -0.30549278541709
C        -0.21521078375838    1.47372436638257    1.07328738785227
H        -0.60020872756992    0.91644625963275    1.91348719564616
C         0.86635670445553    2.32548888047496    1.23573831248744
H         1.32353671863582    2.43376224213429    2.20895520531991
C         1.36261552891256    3.04089305232392    0.16521603899093
H         2.20412820781241    3.70984881221011    0.28704818571383
C         2.53966102845021    6.88109175704985   -2.02850431297401
H         3.05200270846917    6.26736715304604   -1.29453838445475
C         2.38105926386280    8.23234462639364   -1.83526566127893
H         2.72797029940359    8.69142891444480   -0.92046583618585
C         1.81198898700670    9.04725274507019   -2.82978218478348
H         1.77158435827456   10.11440583534997   -2.66792338272904
C         1.31037229142232    8.51576026320313   -3.99261495385699
H         0.88046785571657    9.15469548064996   -4.75180527045876
N         3.55096227118840    2.82617330749697   -2.82627297452322
C         4.81202688606790    3.08962656597555   -3.51843579084930
H         5.49638238249781    2.27309933296308   -3.27208976074142
C         4.64413751491860    3.11562327967290   -5.03986563381623
H         5.61975278959573    3.09283088685786   -5.52026094516655
H         4.12726383260575    4.01866208179760   -5.34629595325752
H         4.07091622507328    2.25489896139782   -5.37309312174482
C         5.44990497859931    4.39203846203823   -3.03022743633655
H         4.82358457877932    5.23958017729360   -3.29201700159718
H         5.57318489482873    4.36945933756395   -1.95025490379457
H         6.42706484880987    4.52308687381552   -3.48911285488390
C         3.47717592123450    1.56752647158187   -2.09589567919979
H         2.46972965384235    1.51587036436999   -1.67591555065537
C         3.64416986407264    0.35296689654671   -3.01619865774918
H         3.44943898061683   -0.55695607652632   -2.45390093489090
H         4.64856441638911    0.29055267605637   -3.42725190472636
H         2.93440326333285    0.40953954889999   -3.83751734752201
C         4.46539969381582    1.51003715458283   -0.92622802915334
H         4.26945771101174    0.62605154880208   -0.32485699353501
H         5.49579970815916    1.46774224565823   -1.27061888571600
H         4.34519481815350    2.38793619616611   -0.29732554654983

