28
CSD_code = OJAGOV | q = 0 | S = 0 | Stoichiometry = C11H11Cl2N3Pd | MND = 4
Pd        4.50815118363400   11.58219003937290    1.34800042780500
Cl        4.28508143287129    9.49965847118087    2.07889468057989
Cl        6.28812315890166   11.02887922569719    0.14528547003434
N         2.96589463097051   12.18284231717139    2.50715619047748
N         4.71331423963856   13.51586990062697    0.80802274441515
C         1.88872573472779   11.41933637757071    2.68584724764106
H         1.78904176478562   10.57797518346089    2.01046153580755
C         0.96891537763449   11.65917149324381    3.68907572574506
H         0.11526899220647   11.01359111344543    3.80848649107497
C         1.18514613479106   12.73490129665844    4.53743891559674
H         0.49780267533478   12.95300057170443    5.34027954587669
C         2.29121480959388   13.54125220068004    4.33895705414383
H         2.45567157832300   14.39367295385311    4.97593010449494
C         3.17503557087139   13.24287869996656    3.29829690862489
N         4.30317595933913   14.03794149985471    3.06970597303633
C         4.83792568168750   14.78342110675058    4.19305409785723
H         5.88243347548889   15.01593579965058    3.99030840949494
H         4.79747189845518   14.15229991067533    5.07987659424711
H         4.29646930725813   15.71420985207308    4.39166073471097
C         5.07693643154045   13.86478984739314   -0.42551761444708
H         5.06858757862600   13.07032899988997   -1.16243032594666
C         5.47349799823258   15.14936979130355   -0.74589680966142
H         5.77070261161436   15.39029010915125   -1.75264820323001
C         5.49025350059772   16.10423477535041    0.25994191362679
H         5.79903356443131   17.11781816298453    0.05601794446705
C         5.09420807380381   15.74770796211659    1.53637796847714
H         5.07950189631661   16.48548704187410    2.32068729800229
C         4.70121473832442   14.43044529629862    1.78632897704749

