25
CSD_code = OJAGIP | q = 0 | S = 0 | Stoichiometry = C10H9Cl2N3Pd | MND = 4
Pd        3.83024382062702    2.44277609042250    2.95502285764977
Cl        2.63843232242902    0.65613112495176    2.39949999777849
Cl        4.38126269631726    2.73397251636356    0.82618710029821
N         3.45602637244735    2.10758317965164    4.94212303449838
N         5.04033961716250    4.00005658111330    3.50961877146319
C         2.31600913706007    1.52845229437108    5.32936118456287
H         1.51051107065639    1.54341546383012    4.60579627899223
C         2.16801237113912    0.92230809160335    6.56140044027409
H         1.23058182876688    0.46496648043944    6.82910483493972
C         3.25421952907813    0.89833788337063    7.42715344659134
H         3.18747502087043    0.41111366625201    8.38744067768307
C         4.42371369854320    1.52303628894339    7.04467483598961
H         5.28350595007237    1.53975673017024    7.69707439824751
C         4.48866694318939    2.14060782807793    5.79022052070105
N         5.65837806254738    2.79980359614610    5.45023487263452
H         6.39325999506710    2.70588862768852    6.13864576051027
C         5.24284204426748    5.02997149837432    2.68300411981829
H         4.52383295485919    5.13824784676702    1.88053094983817
C         6.31191422879712    5.89412137217282    2.81553959685435
H         6.43656200186735    6.70911680817167    2.12281638719974
C         7.22387473836141    5.67405064803655    3.84015366567729
H         8.08624948138802    6.31092607709391    3.96155475122314
C         7.00213990176529    4.63021177973863    4.71508634297501
H         7.67969832162226    4.43785408054853    5.53304713141182
C         5.88064789109821    3.81289344570097    4.53220804218790

