37
CSD_code = OJAHEM | q = 0 | S = 0 | Stoichiometry = C14H17Cl2N3Pd | MND = 4
Pd        2.32420418785140    2.85866838127608    1.53636894756698
N         2.98328943337561    2.20902738161767   -0.24424625618513
N         0.74606814337024    1.65708943102900    1.28874450431830
N         2.35713000380145    0.05751444096091    0.56319763024252
C         3.60680166966718    2.97351246326558   -1.13902941732625
H         3.51027174132228    4.04329781827887   -0.99951305738994
C         4.36212908119656    2.43845876371545   -2.16556188316585
H         4.86010824474271    3.08836751979485   -2.86573669092787
C         4.47615502893319    1.05813976348053   -2.25926374037266
H         5.06763336191855    0.60473358942065   -3.03963561593108
C         3.80883358616680    0.26674105210306   -1.34228228611633
H         3.85501426800268   -0.80932055671996   -1.39389138335095
C         3.05734059446307    0.87726615909446   -0.33931399477437
C        -0.49814953730042    1.96488585712623    1.65072477652342
H        -0.68179438354766    3.00714886367393    1.88186954103388
C        -1.49036637576496    1.00864654303566    1.76117277813919
H        -2.48375303387455    1.29374778245717    2.06557408928865
C        -1.17379316710454   -0.31520235917372    1.48970932918801
H        -1.91938933730205   -1.09036762385545    1.57645310807553
C         0.11428507865855   -0.62813970044563    1.09374929034900
H         0.39600383379480   -1.64125431068096    0.85546552056709
C         1.05970943756781    0.39050764289794    0.99587841315498
C         3.17341493054970   -0.70329096048597    1.50898375221512
H         4.03582547574235   -1.09516081801186    0.96841565061640
H         2.58190038688093   -1.54230307475940    1.88337882654959
C         3.62925508436416    0.18415723649995    2.67605921085622
H         4.16241155156260    1.06924815405435    2.28107191590402
H         2.74170086258078    0.52934223230201    3.22887608382770
C         4.55981212345863   -0.54610910729760    3.64537300197038
H         4.66393867134495    0.06814722627267    4.54055176855897
H         4.10564666559155   -1.49470943639218    3.94262083252065
C         5.94554278094141   -0.79624234064303    3.06095037960811
H         6.59554993921572   -1.23488258684645    3.81379018689466
H         6.38872812822248    0.14071316958879    2.73169378052698
H         5.90588808703371   -1.47799341591038    2.21440791902256
Cl        4.17428027138056    4.07807057209716    1.77065409104879
Cl        1.57677318119557    3.42404424717339    3.55603899696853

