73
CSD_code = OJAQOG | q = 0 | S = 0 | Stoichiometry = C22H40BN9Zn | MND = 4
B         5.14209097260128    5.88591442569370   14.00750057665882
H         5.39256360727465    5.45366162081349   15.07717148248522
C         6.77565916051117    3.17574581239522   14.32124585574494
H         7.32949269820967    2.26990220278079   14.09329543247748
H         5.88632331763005    2.92194418284570   14.89456567532398
H         7.39515959866968    3.83766325470328   14.92296073296990
C         6.40312042139493    3.82872215230128   13.04477712161176
C         6.19926813736987    4.22316723299296   10.98499944255759
C         6.33265180281558    4.06956385950682    9.50122896649394
C         4.94032710749367    4.06478982028071    8.86236441068597
H         4.34762822857652    3.24091760337325    9.25440540978071
H         5.02750450858564    3.94607259217241    7.78471445167789
H         4.42164101464641    4.99643032816362    9.07157305338450
C         7.16249322664566    5.23929313288691    8.95939027347514
H         6.69679776852450    6.18762651409688    9.21643096181978
H         7.24369787747229    5.16814466185675    7.87712603239814
H         8.16379229878422    5.21962479995896    9.38449742803466
C         7.04318388556996    2.74937989834641    9.19602234844638
H         8.02353808352531    2.73079781208374    9.66327090817508
H         7.15877522219863    2.62941062824998    8.12132494297912
H         6.47042229918266    1.91266340804140    9.58614854141467
C         2.81126215993534    5.12333365412475   16.03222927597854
H         3.35425442540614    4.18073271499141   16.00555461187010
H         1.82844456994666    4.96236711743501   16.46505182498508
H         3.36909439526684    5.82382804489170   16.65034431057665
C         2.63694196031541    5.66160661640957   14.66316221662413
C         1.74586122934032    6.36361768725872   12.88768559687076
C         0.69271637031737    6.74168572956475   11.89241540566084
C        -0.68678407253785    6.57448539070237   12.53228104916186
H        -0.83067482651311    5.54854283713840   12.85854589523727
H        -1.46248677739058    6.83178492212166   11.81487053615609
H        -0.78084793442082    7.21873154710374   13.40192583071977
C         0.89119191446259    8.20075959781365   11.47003289691856
H         0.81056108265794    8.85804659345202   12.33323664223082
H         0.12972629409179    8.48408259153938   10.74694440765649
H         1.87042234554456    8.33764425278391   11.01933510908315
C         0.81382692532513    5.81447907187634   10.67738960171365
H         1.80945053427803    5.88134995389375   10.24553146918027
H         0.08245473451487    6.09250589776695    9.92203619182058
H         0.63379489784633    4.78264768895168   10.97163308205705
C         6.86239737681542    7.57766602692763   16.07780029386291
H         7.43918877738650    8.37665756129386   16.53402320554797
H         7.46810231482422    6.67494739928367   16.03024699216305
H         5.98485825562429    7.37094271747297   16.68700864929998
C         6.46276664287509    8.00762065104646   14.71768306104241
C         6.23377867893886    9.16480881215130   12.97184387496319
C         6.33288769480011   10.31965809314929   12.02349711445395
C         7.19963695398209   11.41244116476456   12.65211030115743
H         6.77375148772814   11.73628990266735   13.59734286244201
H         7.26625578393396   12.26546135545476   11.98092007515986
H         8.19996117605121   11.03627057445772   12.84695422818179
C         4.92335517555428   10.86512227920274   11.76612989238168
H         4.27922353945473   10.08420728472045   11.36937789924273
H         4.96584086985026   11.68396297322153   11.05152491726605
H         4.48740743988101   11.23482615860921   12.69185143262128
C         6.96897679026619    9.84784966826835   10.71223538283845
H         7.96840376724094    9.45942704535176   10.89616738744978
H         7.04387687524824   10.68001567306948   10.01606260305574
H         6.36969117391203    9.06362380952618   10.25798108055665
C         4.07262764998281    7.75036259954561    9.40537219583217
H         4.90507853139060    7.66531463886026    8.71120877051514
H         3.81336260766844    8.80595674645398    9.42776265918647
H         3.23505177676534    7.25050337161673    8.92518289787678
N         6.71636764330348    3.34373180642581   11.85508253362613
N         5.71475602062600    4.97182171416461   12.92045188595119
N         5.58399766477466    5.22507630062679   11.59876289375386
N         1.45822566078762    5.88930660702099   14.10838224089657
N         3.62528771145669    5.98288217714749   13.81700289086167
N         3.05348641495836    6.43360761099610   12.67795637528257
N         6.77830195095469    9.18152999254412   14.19706439207806
N         5.74578871233864    7.28402340705181   13.84677762585370
N         5.59942264836079    8.02627635636098   12.72629163660170
Zn        4.49254276617959    7.00673966718116   11.23141974490159

