76
CSD_code = OJAQIA | q = 0 | S = 0 | Stoichiometry = C23H42BN9Zn | MND = 4
B         7.28527756603841    5.83358902129486    1.41608715138533
H         7.50781238140242    6.99193033937599    1.36366457716069
C         9.00027613721543    7.28240801628681    3.65634090752213
H         9.57467323516711    7.47194274233632    4.55820710502043
H         8.12535729147642    7.92911112922259    3.64197302082453
H         9.60965157946772    7.50864102086305    2.78387795270390
C         8.59501864017721    5.85751743943332    3.65268692211644
C         8.35230447245817    3.84739584232204    4.23381283239023
C         8.40797553181095    2.60968550540379    5.07456825087150
C         9.03206897366198    1.46561216866741    4.27121626971907
H         8.45379748793005    1.27149086511024    3.37271263075833
H         9.06074171405740    0.56060850102532    4.87400563951043
H        10.04924897604742    1.72010096982568    3.98108622812236
C         6.97504670347277    2.25514842839359    5.49023227195211
H         6.55828137887697    3.04394071375736    6.11307264557206
H         6.96756429719073    1.32647657276440    6.05656051943750
H         6.34378204550152    2.14111792114643    4.61176889237581
C         9.25262500703337    2.88283619506580    6.32051899990525
H        10.26873199793837    3.14405319484998    6.03868534023157
H         9.27665218076308    1.99867566870383    6.95331303653786
H         8.83773768035268    3.71291105661760    6.88477898106633
C         8.96091464632691    7.07933934435454   -0.96729349902017
H         9.52542829535524    7.18742918354810   -1.88863907871195
H         9.57292362217776    7.40107263339668   -0.12725252365984
H         8.07552342062326    7.71032004595294   -1.00932683964996
C         8.58008287661605    5.65529455921317   -0.81904472973710
C         8.36977520403686    3.59286597167427   -1.19408032059380
C         8.48348032325863    2.27707082595059   -1.90048603941923
C         9.24648438853037    2.47519709107576   -3.21209355472883
H         8.72802184602271    3.18641325664274   -3.84867616394613
H         9.33309156400692    1.52639426983653   -3.73653665685587
H        10.24132412528870    2.86468796946509   -3.01630476360588
C         7.07573749608168    1.75288533062212   -2.20287700350960
H         6.49488987464783    1.67180654491927   -1.28830363090183
H         7.13507761785365    0.77352844111079   -2.67210785440226
H         6.56010717980090    2.43101352308380   -2.87963088019423
C         9.24740443445774    1.29243676947130   -1.00985391166918
H        10.25765386734073    1.65445096373045   -0.83071634132081
H         9.30835372940221    0.32107201876120   -1.49525779596869
H         8.74617290710767    1.17759279748527   -0.05340358040516
C         4.92986399673972    7.95361999240480    1.24168776466174
H         5.47952771679415    8.34993796993253    2.09293681250180
H         3.94065264508403    8.40045208191697    1.21000994391923
H         5.47164353805036    8.20850159530459    0.33319033748154
C         4.77465487367549    6.48510708130320    1.35981031606767
C         3.90310565340221    4.57380291698402    1.51412341993321
C         2.86138767109396    3.50643503950557    1.64430956506175
C         3.06877479041407    2.44872272438310    0.55666685941234
H         2.97105705939275    2.89803195091330   -0.42931300010873
H         2.32202780493262    1.66380395199915    0.65418569404838
H         4.05764245471917    2.00577599069445    0.63848013296956
C         1.47388384427141    4.13314425484875    1.49496289217045
H         1.32652247120315    4.90783088148324    2.24171750726371
H         0.70739239063831    3.37116823476059    1.61584956995149
H         1.36830245679598    4.58864655709108    0.51431877595518
C         2.99773456966018    2.87863899298911    3.03689861633052
H         4.00705510875290    2.50083519510247    3.18472176540804
H         2.29169585476706    2.05886685329368    3.14959369436673
H         2.79190623271955    3.62089264981116    3.80529979257456
C         6.45381317135875    0.78181496086674    1.49448398592909
H         6.03039504961907    0.51387979290117    0.52408370846409
H         7.44250501016184    0.31711721034092    1.50045176485221
C         5.62212368920100    0.04899255605433    2.55128007227357
H         6.02917168462217    0.18644712699594    3.54966364228582
H         5.62088271896395   -1.02289673427141    2.34120196241602
H         4.58817956479819    0.38403651161223    2.55243790401574
N         7.73750222902316    3.95211694695851    3.06255753638046
N         7.88950789149412    5.24387688128943    2.69268600094392
N         8.89457725551916    5.00988068501635    4.62238178036729
N         7.75375275034085    3.80347780328958   -0.03691339963052
N         7.88754323771704    5.12871960157016    0.20024278659639
N         8.89182829191024    4.71987291374547   -1.69907844813341
N         5.21305039762172    4.36576248878242    1.52289357624770
N         5.77232971155182    5.59287027172485    1.42637543344764
N         3.60193284410170    5.87587179953353    1.41331778103346
Zn        6.68240067191379    2.81437941610654    1.57719844565810

