70
CSD_code = OJAQUM | q = 0 | S = 0 | Stoichiometry = C29H30BN9Zn | MND = 4
B         5.36321641846822    1.32634525482359    3.26246198940453
H         6.52042285144956    1.44894170802474    3.06119501755208
C         6.31363021482937    3.72482536408874    1.34994222630217
H         6.53904358602320    2.92282458792180    0.64905564169264
H         7.06568201465582    3.71543329105429    2.13568813674259
H         6.34313869517748    4.67555911647038    0.82621138526914
C         4.95979770910676    3.54373190056991    1.92213490703118
C         2.92907556601969    3.83237511325168    2.40135227856328
C         1.60688410505010    4.42866729850283    2.48292573569695
C         1.12263925446268    5.17834916754732    1.41396755726214
H         1.74497210136640    5.30463314262512    0.54151644722931
C        -0.13786056439268    5.74065711798978    1.47932939912476
H        -0.51422559943064    6.31585371035354    0.64614897706200
C        -0.91922256941634    5.56693219052101    2.61045479486818
H        -1.90550909793417    6.00471587466912    2.65822566433740
C        -0.43163139590197    4.83963332855718    3.68423648380551
H        -1.03509168004854    4.71718753983118    4.57178768650979
C         0.82802468441100    4.27389807199779    3.62676475926398
H         1.22308643583902    3.72526501035591    4.46995647675919
C         6.75771656107554   -0.60133014055479    1.11280701025697
H         6.88577470100544    0.34800682705918    0.59642624622306
H         6.93813706819180   -1.41655680910879    0.41862323185359
H         7.47896847324900   -0.64907608125569    1.92598925881199
C         5.37807771478642   -0.72605065277391    1.63642979011209
C         3.41788530959651   -1.41561434150411    1.97958483753287
C         2.21630255681125   -2.23067662827959    1.92082507351409
C         1.86640865286682   -2.86009067603986    0.72918679622230
H         2.50000419747328   -2.73152122739773   -0.13480464090666
C         0.72046073143636   -3.62972697610387    0.66514998811169
H         0.44730947819432   -4.11170658583589   -0.26208362816481
C        -0.07814891253899   -3.78341537668274    1.78704461996806
H        -0.97490065017176   -4.38313440968804    1.73377877835552
C         0.27910836897536   -3.17616815308666    2.98001725018248
H        -0.33522850869336   -3.30924853505656    3.85854833864669
C         1.42366667346885   -2.40488132351183    3.05213033535733
H         1.72261289893636   -1.94991239388781    3.98566808896177
C         7.40910542533054    1.49060981087188    5.67384345452260
H         7.61602827762562    2.44079828953174    5.18561842558266
H         7.86640927999216    0.69538158895639    5.08883533702724
H         7.83628894594763    1.49682920722751    6.67218550264530
C         5.94841431508217    1.27561121179089    5.79141053833674
C         4.02862397877890    0.96445986521653    6.60532193695602
C         2.98894440183953    0.76532027497885    7.59969337061688
C         3.32667744002873    0.87833691448070    8.94848228299749
H         4.34780992621133    1.11152681765070    9.20587384740110
C         2.36685310482756    0.69350401008358    9.92423233363597
H         2.63519604799829    0.78335267458810   10.96659595715081
C         1.06162191076769    0.39318323065281    9.56829041908358
H         0.31120172376814    0.24889043875663   10.33159959001554
C         0.72109955708588    0.27627400932006    8.23011566959764
H        -0.29479907626073    0.03959179449487    7.94988507031691
C         1.67657976927478    0.45905833508085    7.24858582879786
H         1.40868984198360    0.36211264975919    6.20491127551006
C         0.32532701782853    0.84789785022986    3.52119629033726
H        -0.08095848725164   -0.10140716902616    3.87351401577879
H        -0.23741359000208    1.62122968756350    4.04587533589462
C        -0.01335481225835    0.96316641004369    2.03243669624313
H         0.30883730982525    1.92151020403607    1.62850237589375
H        -1.09162998263672    0.88315986445311    1.87893777093874
H         0.46313322004678    0.16963277064118    1.45885819586565
N         3.28500710892852    2.71691760880283    3.02616323450374
N         4.58571797631635    2.53502078483771    2.72570457359346
N         3.94750252401738    4.36322777757103    1.69938012146398
N         3.56316688821488   -0.35689330898041    2.76619000340968
N         4.81908881280969    0.08150527564242    2.55229212770618
N         4.52653987909508   -1.66284804506578    1.25786207949171
N         3.85381028516267    1.00429406953389    5.28855569874334
N         5.08305223892451    1.20200869495185    4.76601590069581
N         5.32213838854133    1.13233079419377    6.94338127948026
Zn        2.31296230775396    0.99938030168637    3.81507652024657

