105
CSD_code = OJAQUN | q = 0 | S = 0 | Stoichiometry = C42H36N6O16S4Zn | MND = 6
Zn        0.58868908273941   14.94825473889281    5.71232973184938
C        -1.98323045802991   10.41611799696556   -1.20809262248220
H        -1.77664182918102   11.23655736734114   -0.54291373329080
C        -2.34784920622451   10.63675940469329   -2.49357042368044
H        -2.44758207716347   11.62649916920022   -2.91130681082403
C        -2.51035278120625    8.31298941280571   -2.88785320873241
H        -2.73505552149352    7.53768863089958   -3.60252613554886
C        -2.14555053574117    8.03379580237769   -1.61183589264524
H        -2.06860586061756    7.00250491086131   -1.30759968849184
C        -1.85255541758630    9.09046975137577   -0.69855115144638
C        -1.45820223642546    8.85923389922915    0.63589975106641
C        -1.30271932826139    7.42695862225926    1.09521385229370
H        -2.22728892922775    6.85907611316331    0.90157938897082
C        -0.93090676477915    7.30307551690756    2.54397768393481
C        -0.70742633549734    8.41442315403915    3.27329487022777
H        -0.38181184056001    8.32628787074260    4.29608838819625
C        -0.85017696356800    9.72362385274075    2.69346345465585
C        -0.57787454900269   10.90684582244723    3.42598061255994
C        -0.19497270720110   10.94053137744612    4.79163869725858
H        -0.12389646268023   10.03341147599903    5.36731426548973
C         0.09218141791771   12.12097731882476    5.40636906100889
H         0.37907140683756   12.13525497064935    6.44874091387257
C        -0.35292988174140   13.31687943337627    3.49490050005005
H        -0.40198712295320   14.28305595964650    3.01192392800964
C        -0.65840177333248   12.18387720570360    2.80908678797638
H        -0.95971113109158   12.22835087385406    1.77656504813102
C        -0.75024501595341    5.94032291396558    3.01871087479580
C        -0.54590101345807    4.89333120448679    2.11339225595137
C        -0.36515213217760    3.59134502437790    2.53343665749866
H        -0.19187815517273    2.79720855096023    1.82558669055605
C        -0.37756046367423    3.32247895310379    3.88594915903059
C        -0.60243358431497    4.32338650072588    4.80878177083297
H        -0.62188118608028    4.04987140567061    5.85176995898120
C        -0.78212669501958    5.62472292554825    4.38465137506481
H        -0.97560068134999    6.40575478242925    5.10458272680040
N        -2.60843702035012    9.59649344959374   -3.33122941685270
H        -2.86824192643591    9.77605511050827   -4.29006274378021
N        -1.21505232326829    9.88822788508266    1.41759361433904
N         0.03985355623364   13.33147196124013    4.79671421762454
O         2.58843796686465   13.98053919415496    6.20651306947942
H         3.08554955202105   14.31087334375145    6.96075524575023
H         2.64302509333057   13.02010769864957    6.22145390234134
O         0.67048751367756    4.62612817638979   -0.25264913202532
O        -1.76047063289186    4.96151242156489   -0.24491738110575
O        -0.50458339199091   14.27084709496098    7.57804830072263
H        -0.81777489460017   15.01017999904467    8.10851665523804
H        -1.27231780856489   13.72617815828913    7.37813748339051
O        -0.25760254740180    6.80736483987693    0.33163167420963
O        -1.75080145541174    1.38107036770134    4.62799880733564
O         0.38755342815510    1.73369143076926    5.77747120248880
O         0.36181110644827    0.85425381721617    3.48319693431468
S        -0.47709051294849    5.20142987804996    0.35792978946706
S        -0.31581974029438    1.60750003331907    4.51481825770704
C         3.15559385709666   19.48301150102906   12.63182206667360
H         2.94944867687793   18.66250496913451   11.96659027100451
C         3.51929885501188   19.26256605641872   13.91758764130905
H         3.61865191640918   18.27289166891841   14.33556463763883
C         3.68157416990321   21.58639890699966   14.31159947611695
H         3.90577352341844   22.36179273772677   15.02632592429247
C         3.31767745111819   21.86541321283694   13.03528237475288
H         3.24100717186834   22.89664852541004   12.73077654080981
C         3.02515985520167   20.80858671390911   12.12203722934733
C         2.63154348651667   21.03950503498420   10.78732914142826
C         2.47626701159637   22.47158716533687   10.32744803180183
H         3.40067894222421   23.03960650909398   10.52143547355936
C         2.10533721433152   22.59504971938487    8.87839113367955
C         1.88271803920464   21.48342005775250    8.14918087139701
H         1.55785218346699   21.57110487294672    7.12610103623359
C         2.02500101928828   20.17441813058476    8.72963705854730
C         1.75334648450893   18.99072241481565    7.99756814950578
C         1.37349864670352   18.95600678502422    6.63111916349148
H         1.30447135370579   19.86263225109676    6.05441131618620
C         1.08702587945086   17.77512609560412    6.01686881146914
H         0.80245869060076   17.76002072711839    4.97388295895752
C         1.52711702357432   16.58072635432741    7.93042343980400
H         1.57434856277993   15.61498540658731    8.41443905055287
C         1.83161494645344   17.71423420802615    8.61586646331532
H         2.13022109775939   17.67059713815743    9.64920894615273
C         1.92484371738704   23.95776591929025    8.40340978574405
C         1.72026960153613   25.00486049101971    9.30858926081148
C         1.53994890479091   26.30687149378353    8.88848542168216
H         1.36649773248783   27.10098481009782    9.59632019032986
C         1.55304721769575   26.57579567262537    7.53599388324009
C         1.77806666533565   25.57480263771140    6.61328239151769
H         1.79803415247309   25.84829851908821    5.57029818430633
C         1.95726869792152   24.27340276336235    7.03748243062928
H         2.15079944755748   23.49235173720222    6.31758889694239
N         3.77922100670720   20.30296958978233   14.75527020927390
H         4.03825742002506   20.12355296194768   15.71433698340933
N         2.38878815703578   20.01027885133306   10.00584363160871
N         1.13734306309040   16.56518668674618    6.62774005469744
O        -1.41084868525091   15.91676095314634    5.21847133377024
H        -1.90777166045815   15.58628380506371    4.46414133991125
H        -1.46427790475187   16.87723210678187    5.20259592279400
O         0.50260202627591   25.27272912822312   11.67388288369256
O         2.93347113118159   24.93696854285669   11.66763415837393
O         1.68019960821097   15.62482227253670    3.84516517414239
H         1.98997379091717   14.88495282085882    3.31345655351130
H         2.45002301565113   16.16708673122320    4.04348412205825
O         1.43069945983880   23.09125265774649   11.09034767260867
O         2.92727269281338   28.51682361614595    6.79486955911251
O         0.78920172633003   28.16530674373345    5.64451015188438
O         0.81444511480640   29.04419730238256    7.93900334375757
S         1.65042425520581   24.69713254821072   11.06405078971857
S         1.49215435682513   28.29092369999587    6.90744924387265

