50
CSD_code = OJATEZ | q = 0 | S = 0 | Stoichiometry = C27H18N4Pd | MND = 4
C         2.45562479711383    1.34027790048520    5.94096392733670
H         1.92130376479713    1.71440221751232    5.07202689039132
C         1.93544284790552    1.50432244172732    7.21224159655953
H         0.98694418277968    1.99777377674740    7.35150712586476
C         2.65946322467764    1.01943163908902    8.29396720719541
H         2.27594741778009    1.11444321161071    9.29859163419307
C         3.89223002205337    0.44084896623919    8.06415650886800
H         4.49555716832558    0.09692076031325    8.88867600026884
C         4.36937291115625    0.32267401280935    6.75810538411544
C         5.68768637404315   -0.16704804947917    6.37722468980490
C         6.55115416191412   -0.83764015859876    7.24344935969359
H         6.25215417481337   -1.04433059509118    8.26101781388954
C         7.78267210149511   -1.26791766329281    6.79272328465805
H         8.45205959808497   -1.78882188421279    7.46146628730607
C         8.14814353992328   -1.04757349793783    5.47368339153521
H         9.10480095859614   -1.40185057714343    5.11623200921227
C         7.29282738596377   -0.38419672502551    4.60565227814456
H         7.60744297497818   -0.24246538049020    3.57800824868303
C         6.06008946650925    0.09998523126412    5.03821935320299
C         1.63406380354200   -0.14952219733777    3.02631960594720
H         1.31850871648684   -0.18129488797008    4.05762700646744
C         0.93142793743587   -0.69287360062804    1.93221636702053
H        -0.00290382076950   -1.21829657504025    1.98265129223398
C         1.67901704996847   -0.41159477824592    0.81930219315223
H         1.47513496460744   -0.69539061102805   -0.19491323911963
C         2.83709910086468    0.28711300310583    1.27077122549238
C         3.90432620725552    0.71148535779528    0.47726816198586
C         5.11421002318147    1.23055767588096    0.95616334266981
C         6.08241841808807    1.93093336242733    0.18359782881846
H         6.02766057680993    2.10923221598829   -0.87285780648890
C         7.04422404730506    2.37305668474333    1.05781420266477
H         7.91926764529242    2.95095966463139    0.83145598861829
C         6.66320896362698    1.91509479545740    2.33088649540750
H         7.19221959892982    2.06428840152259    3.26037482492916
C         3.74792058664026    0.61816085086888   -0.98496201800945
C         2.67575573953136    1.23609913605545   -1.62685209089697
H         1.96294562215089    1.79889285419378   -1.04284945517321
C         2.53328586376869    1.14941089247039   -2.99632597948924
H         1.70693846460570    1.63394499577042   -3.49548798512253
C         3.46437392695754    0.42815670691281   -3.74554122847127
C         4.53873407087137   -0.19669233652370   -3.10996391661179
H         5.25424131796157   -0.75503456376232   -3.69556241689127
C         4.67786909164571   -0.09403635178247   -1.74156479616953
H         5.50364530186022   -0.57839536801179   -1.24222872829548
C         3.31921637916636    0.33037840229150   -5.14800279252598
N         3.61746269772881    0.73270876277714    5.71241087399110
N         2.75837256179790    0.44405116286548    2.64314760130525
N         5.52396769793437    1.22830981352383    2.27235626771133
N         3.20041771993160    0.24991439599367   -6.28572898549133
Pd        4.50715265192582    0.72324650851362    3.91496516940775

