69
CSD_code = OJAWOL | q = 1 | S = 0 | Stoichiometry = C28H36CuN2S2(1+) | MND = 4
Cu        3.29211007827180    5.54715102302084    3.56399185804083
S         4.76932851551120    6.27732015160874    5.16600821245652
S         1.13629890963384    4.96893173591000    4.19955934273451
N         3.55769851971185    5.75125727306682    1.55679162655015
N         3.98252220868898    3.55446648775543    3.18548509875186
C         3.58615425717112    6.86929189497665    0.83742160721796
C         3.84393668742454    6.87856124767860   -0.52048153431777
C         4.08678261761777    5.66865864988716   -1.15447603674635
C         4.04580017543365    4.50407953163943   -0.40625922805103
C         3.76926378913307    4.57999762523146    0.95273473324373
C         3.63063611200696    3.33374450139043    1.78634346977267
C         0.92167444043045    3.20028190141311    3.95400312669879
C        -0.40115494189632    2.81573919329112    3.76333370153406
C        -0.73892495090674    1.49505069693125    3.54052927804362
C         0.26361694243882    0.54317832601879    3.48780691621255
C         1.58113856992998    0.92904156433272    3.64766163731935
C         1.94733774403814    2.25412117029375    3.88167334189895
C         3.41930578544631    2.52904540244754    4.06950334063054
C         0.93146867917981    5.19119186933403    6.05522831797825
C        -0.47808707964433    4.77867434117884    6.44234622827444
C         1.97179144506071    4.36835901183015    6.79252171415969
C         1.14891712468059    6.68190330711903    6.26911268255839
C         5.44434656800727    3.60618712203696    3.31860546061065
C         5.95693671608379    3.73317762720759    4.73182475867822
C         5.77045182617025    4.83891907939539    5.56374187580522
C         6.30555390406963    4.85512571430658    6.84696130433630
C         7.05853457817641    3.79758037485378    7.31880125702222
C         7.26382045608311    2.69955507052842    6.50259400276218
C         6.71369529198627    2.67620174129237    5.23451093979207
C         5.96741639010199    7.53443163557779    4.45430025770124
C         6.63365644629737    6.98542869094247    3.20638683183631
C         5.07690278194048    8.72637946041603    4.13295455989989
C         6.99220028757815    7.87889950105686    5.52123137574558
H         3.39120510085766    7.78662684811116    1.37458605866092
H         3.85552218631454    7.80777192197093   -1.06555073115687
H         4.30041264469026    5.63269882425834   -2.21122577215686
H         4.22037192749229    3.54507153043982   -0.86786917052456
H         4.22321232181634    2.51960772935431    1.34270938298989
H         2.57617704745740    3.03720713389081    1.74596602335396
H        -1.16671413604846    3.57507810930024    3.78613645162349
H        -1.77158520098857    1.21629969413107    3.40382636774668
H         0.02560461580116   -0.49417184154578    3.31305315045958
H         2.35589947790791    0.17796855622859    3.59290305565652
H         3.95756555640369    1.58029485693025    3.92219668484871
H         3.60703453604206    2.85305828333718    5.09759448815778
H        -0.63514441722225    3.71426342974499    6.28147313526335
H        -1.21423232370311    5.33502279541740    5.86744403696288
H        -0.63870306815936    4.98946975519077    7.49756376518748
H         2.97682149450482    4.65281928572254    6.48389171927728
H         1.82295756364371    3.30415752460231    6.61826146243779
H         1.88353829757572    4.54957137416270    7.86195799085482
H         2.14598538347922    6.97471183578041    5.94410467666866
H         0.41653216079225    7.25999977455738    5.71061573380474
H         1.04504049776707    6.92053426055020    7.32487399842813
H         5.79216862197953    4.44833178368477    2.71565379628766
H         5.88184473531208    2.69009329766192    2.89020034350506
H         6.11596138837288    5.71112253182526    7.47539854123704
H         7.47307813569756    3.83032099934390    8.31366348795947
H         7.84540738478342    1.86054496077109    6.85056306432023
H         6.87971209957078    1.81118998509754    4.60879819304575
H         7.25032256137383    6.11993716432183    3.44350430165993
H         7.28013238193140    7.74885554233273    2.77710789944421
H         5.88979192409166    6.71233166732554    2.45941769704232
H         4.26752966885142    8.42877173881645    3.46746640709709
H         5.66011270932830    9.50622649113037    3.64907043441881
H         4.64063123586310    9.13487729115475    5.04149648827789
H         7.64114902510487    8.67245079266820    5.15683682547354
H         6.50321826161470    8.22714615965364    6.42766016313109
H         7.61130732386452    7.01760498811628    5.76369778939764

