48
CSD_code = OJAZAC | q = 1 | S = 0 | Stoichiometry = C16H22N3NiO4S2(1+) | MND = 6
C        -1.80401594087007   -2.23793394880689    5.47995035332126
H        -1.66813290929617   -1.82625133267496    6.48063740015964
H        -2.44612580909987   -3.11605344450784    5.55402872405568
C        -0.47047464390883   -2.62187748263142    4.85724808571717
H        -0.60960543497523   -3.08759485028421    3.88135840248980
H         0.04529350631778   -3.33141367186162    5.50433812630955
C         1.15118146572149   -0.75789343916236    6.23580888129657
H         0.44517334958350   -1.19752632782590    6.93865469137433
H         2.13859523131210   -1.18896654762016    6.39857105626000
C         1.23039092847619    0.75747567794020    6.38349758442665
H         1.84187412998196    0.98757752735575    7.25624304681197
H         1.73421112413092    1.16424838973706    5.50112166467983
C        -0.10391503459383    1.42905399608372    6.53849833816424
C        -2.21905627468408    1.97388120607249    5.79438164855088
H        -2.96720756076750    1.86644721896823    5.01914657078786
C        -2.51684994581313    2.68270323269360    6.93983318119585
H        -3.48087887018088    3.15098512324154    7.04785906335021
C        -1.54941470377142    2.77256108885804    7.92883973904674
H        -1.72963789651870    3.32580550867068    8.83691331171517
C        -0.34844426708176    2.12448128676956    7.72410833334644
H         0.42294875795240    2.15892481960873    8.47684293226975
C        -3.25316922479028   -1.83542909551543    3.07505729703112
H        -2.59698439919290   -2.68928464364577    2.91555144333571
H        -4.26982829950632   -2.18663990472701    3.25008170085180
C        -3.22921223137243   -0.87061294325664    1.89377308973555
H        -3.86785972436416   -1.26669176980579    1.10388042188558
H        -3.64850501665690    0.08108019097345    2.22486564159769
C        -1.84382594830720   -0.66903505820850    1.34132404803915
C         0.33568846665259    0.05413217062665    1.52756973904006
H         1.10031194658155    0.51627469125593    2.14105271170143
C         0.66318539751843   -0.39868945064602    0.26375962005093
H         1.66584189786721   -0.26670104208567   -0.10697125053180
C        -0.31794171526088   -1.01595468386572   -0.49320291350286
H        -0.11112374627328   -1.38305470977955   -1.48602682547131
C        -1.57425330278129   -1.15808469741351    0.06522931260584
H        -2.36268418028072   -1.64451230861110   -0.48714802280459
N        -1.04013351255437    1.37913679168169    5.57992251944837
N        -0.88745634358467   -0.05678640883075    2.05801106047845
N         0.69641599272872    2.87327048964279    3.34176535046937
Ni       -0.97813284464098    0.71627824523064    3.80625776179709
O        -0.55063051208226    2.78975945863989    3.18177385602577
O         1.25604393131301    1.82774099638910    3.71139425488874
O         1.28077276839656    3.89629680366991    3.14534597841512
S        -2.73448980975829   -0.95472778781963    4.58690234951730
S         0.66061597875003   -1.22721255591982    4.53992191023241
O        -2.93555978312061    1.97918737681583    2.75270522443685
H        -2.66759783747991    2.08736747914850    1.83431835463636
H        -2.77819714977986    2.85085833547709    3.13480423073297

