37
CSD_code = OJEBEK | q = -1 | S = 0 | Stoichiometry = C13H17FeN5P(1-) | MND = 8
Fe        2.92967417388603    4.42259883596005    3.95441655355975
P         2.65596275681542    3.23440416721070    2.24156936149296
N         1.64921251752984    2.75527885676653   -0.35047073859289
N         3.80865160685700    1.74101147161880    0.16214706226155
N         1.76925972379157    0.80438849563849    1.11757790520214
C         4.38917806379683    5.20550142786844    3.11375799287130
C         1.32946132160850    6.10306013089792    4.23108322027786
C         4.13309202067018    2.60686723609085    1.28674819031677
C         0.76393929226910    4.84576131507624    4.56546784365589
C         1.69183405988180    3.75450578536351    0.70726420870074
N         4.68802396501673    2.19378368901093    4.95312757061146
C         1.82893940688264    1.54959889470403    2.36658035229067
C         2.33436895544488    6.38815758709815    5.17988848292248
N         5.22930388490118    5.82895329433913    2.61982126245951
C         1.42413907141586    4.35653883573226    5.71349801111118
C         4.07008503927307    3.06320927220752    4.50343956461642
C         2.40260540079593    5.30956881019098    6.08946827406356
C         3.10602599920789    0.54989891771873    0.60331808186854
C         2.99038188551449    2.43431163060658   -0.81509008726075
C         1.01539913413705    1.53125846321556    0.11102390444054
H         0.96916184185410    6.77580883698344    3.46786870792512
H         4.69700354052329    3.47524440661224    0.92599302602493
H         4.77368285740251    2.06424480306987    1.99199949332420
H        -0.10997225334439    4.40672872234881    4.10346079545820
H         0.66138771782515    3.99761310085570    0.99819166299071
H         2.15351305707001    4.66799664947757    0.31204063519931
H         2.39021253555533    0.96575537144528    3.10609020777322
H         0.80651399710962    1.67921161326957    2.74520440399007
H         2.90678454109198    7.30185160851819    5.23879221787818
H         1.15667988441235    3.47245216338630    6.27147168879298
H         3.01693033196316    5.26714977108169    6.97675447021236
H         3.01150710811986   -0.12698661397923   -0.25631782561635
H         3.69563092426930    0.06181562701286    1.38369829308348
H         3.49394838391204    3.36114730944985   -1.10349973303145
H         2.89246052607576    1.78762447840586   -1.69720771317547
H         0.02858039393160    1.77600813619351    0.51669306664495
H         0.88933633252926    0.87117689855326   -0.75727041433763

