23
CSD_code = OJECOX | q = 0 | S = 0 | Stoichiometry = C6H12I2O2Pt | MND = 4
Pt        2.73680594637596    6.71471739913320   14.43915907733041
I         4.91491344214814    5.40938951703930   14.09263558732142
I         3.42036539530851    7.79814801117599   16.65801484394348
O         0.81716539815612    7.60271229025006   14.63397217084613
O         1.94624110105178    5.80276294118157   12.69354237977566
C         0.49958652154799    8.77923758050827   14.61571718460035
C         1.45734105800027    9.88473722664023   14.30639614331782
H         1.74887435049892   10.36234195391828   15.24289774589760
H         1.00040589825320   10.63814083441121   13.66957345122639
H         2.36336100462467    9.48999494278602   13.83949318330479
C        -0.90997445485653    9.18550396344218   14.92333012373812
H        -1.36432463927843    9.64049131718217   14.04421531562114
H        -0.90786197170231    9.92707299343592   15.71981646651712
H        -1.49770646031543    8.32297019589591   15.22782620074221
C         2.29683471058989    5.91269219526802   11.53172217296536
C         3.34198649227249    6.87952224812042   11.07575747772054
H         3.04770425581012    7.37325785521458   10.15285504885549
H         4.26591056579506    6.33125133957963   10.88760497571971
H         3.54758379771520    7.61922955184875   11.85384087454033
C         1.68405483854610    5.04547025041192   10.47373265009597
H         2.47000477413130    4.49810900484340    9.95688582411670
H         1.16775517174792    5.66105375263375    9.73936575605166
H         0.98247280357949    4.34289263506902   10.91614534575051

