42
CSD_code = OJEFAM | q = 0 | S = 0 | Stoichiometry = C11H25CuIN3S | MND = 3
I         2.36405374078856    3.85977526460202    3.21733576688051
Cu        0.47320126152713    5.06517443361092    4.26909785107694
S        -1.82470102632205    4.91077423426305    3.70828988832472
N        -0.02859967644401    6.39747042800898    5.68736326261543
N         2.04027874525586    7.35316954431118    6.03880960784334
N         0.70237944907975    6.87283650410293    7.87907665360671
C         0.87742182538834    6.81919261097411    6.51771639856212
C         2.12686394927630    7.74650633957761    4.65165091058846
H         2.43011530640619    6.91786073112391    4.00541263909940
H         2.86796539192634    8.54229535746353    4.56736062291202
H         1.15977314123084    8.11778094190625    4.32174554790949
C         3.31291470290544    6.95166092933688    6.60320340584784
H         3.16915236948816    6.45032732454959    7.55542755188003
H         3.95195415973457    7.82523469282033    6.74725919320248
H         3.81766853915936    6.25757989566170    5.92408809229553
C         1.26924501379740    7.92591875500635    8.68533484019665
H         1.63075727344076    8.72342445347781    8.04184767388671
H         2.09277379552986    7.57131818271014    9.31445290785240
H         0.49055510175824    8.32621575348359    9.34154205751998
C         0.12157451952974    5.77535629952587    8.61525504361205
H        -0.86680923227079    6.02740668204228    9.01371022508376
H         0.77397454342477    5.52052980521120    9.45551940043227
H         0.04043347070105    4.89852533850889    7.97743038687990
C        -1.42201401727098    6.28269563657847    6.04930317283105
H        -1.71527543431376    7.10647953726676    6.71378607983792
H        -1.64492423081821    5.33539654284832    6.55906498813783
C        -2.26085242292385    6.33569796273785    4.77321034230091
H        -2.05737016008973    7.25206665396964    4.22273735588514
H        -3.32327006332467    6.27066185678808    5.00935211122509
C        -1.80332775427648    5.58951725205074    1.97275417903971
C        -3.19910043217489    6.09584174036158    1.63570123483329
H        -3.23310140788822    6.41208383366599    0.59453215750357
H        -3.47599125776535    6.94515796380536    2.25787117375664
H        -3.93363158265054    5.30664551649727    1.78072622294961
C        -0.75683079688769    6.68239005924649    1.82344645918670
H        -0.69256356885437    6.98253624176288    0.77879742074933
H         0.22200487970686    6.31797684622301    2.13276402167118
H        -1.00033927546509    7.56696979445984    2.41025000902069
C        -1.43680798387672    4.38531275260369    1.11082732845895
H        -1.42989781613724    4.66835461460065    0.06039269813142
H        -2.15528497160168    3.58065199445666    1.25146396070711
H        -0.44936806852783    4.01202869762625    1.37268915565961

