16
CSD_code = OJEGER | q = 0 | S = 0 | Stoichiometry = C7H5IO2Os | MND = 8
Os        2.64788870143708    7.40317567357751    4.38253192038632
I         1.60094610967118    7.40323729123998    1.92299910095316
O         0.72520178763286    5.28706783641680    5.36360799294802
C         1.43349835696549    6.09871163860272    4.97599400809636
C         4.47823055703753    8.11675474078249    5.54491326815073
H         4.49348042634551    8.74355971064698    6.42506136565163
C         4.79450062092273    7.40318783976247    3.39481559816960
H         5.04182997604705    7.40319546623956    2.34280090463666
C         4.66369326120897    8.55400455961061    4.20802288427233
H         4.85673855676743    9.56988288735117    3.89530041803722
C         4.47823660427703    6.68959514922632    5.54490616549507
H         4.49349145563375    6.06278088909995    6.42504733376117
C         4.66370719969377    6.25236141619691    4.20800976827448
H         4.85676257158123    5.23648799708846    3.89527434657246
O         0.72510536346767    9.51920697254605    5.36365286052629
C         1.43348845131069    8.70768993161202    4.97586206406849

