135
CSD_code = OJEKOD | q = 0 | S = 0 | Stoichiometry = C60H56B2N12S4Zn | MND = 4
Zn       11.32045026391327   14.88608869011662   10.94688327208496
B        13.65858701406759   16.98364420392220   12.08352013178719
H        13.41368422069959   15.89184223134126   12.47362762774836
B        11.84610650165486   11.99867110117995   12.53912171958839
H        12.52226981171109   12.97138744304277   12.56713689497561
N        12.41670802513962   17.91233860017217   12.23900855812902
N        10.52109228621840   18.96368900722063   11.92517339777432
N        14.03127344115089   16.97013852505624   10.58088181525371
N        14.37735446442953   16.41420915712679    8.49550173330049
N        14.81646775034265   17.61646602636820   12.82750347537476
N        15.08994545525829   18.91692534981929   12.66302370742924
N        11.73512086750631   11.45009175145267   11.08461660240764
N        11.13480290995441   11.09249552374319    9.00877590120625
N        10.40719948681682   12.30361489793809   13.02209920081891
N         8.55822514438992   13.27130636088492   13.67227144818796
N        12.38940644920440   10.89210550908856   13.41948181241304
N        11.87410754888681    9.65867481795537   13.34212666947194
S        11.00530413321670   17.16705252183289    9.99992882221652
S        13.54019053701973   14.34254560746598    9.99435251026517
S         9.77688191126619   13.11845967710540   10.11447684953160
S        10.56887717995577   15.02090088755459   13.30180987871491
C        11.34311407153555   18.00436623470461   11.44647765811204
C        11.09351970228899   19.48037461967740   13.05874100175010
H        10.61915027215071   20.25531692654540   13.62378287426239
C        12.25525030181242   18.81392826008297   13.25175692498597
H        12.98409814147582   18.92245848934149   14.02586572751699
C         9.32456702668690   19.44184002109101   11.33462226991891
C         9.33158336307563   20.73615429602453   10.82999312262204
H        10.24083074789940   21.31688426844959   10.88470519853172
C         8.19049741119425   21.26375694686157   10.25777063980214
H         8.19948996961429   22.26791367518446    9.86257756135654
C         7.04170452835129   20.49290266613769   10.19326921377442
H         6.14567898218934   20.89508234892856    9.74480424732329
C         7.03873340283369   19.21044480118476   10.70793986205348
H         6.13770947269070   18.61646472675065   10.66310415654309
C         8.17253613302668   18.65761705367942   11.29376309033550
C         8.13552941565981   17.27470649774178   11.85359466831868
H         8.77735935729042   17.17466995660778   12.72694572518267
H         8.48304310404662   16.56120548885950   11.10342397052394
H         7.12132672654808   17.00139856046284   12.13163591477666
C        13.98679492048622   15.95943142265497    9.70708698713755
C        14.67526058383242   17.74938696315537    8.62053392680037
H        15.03169674037430   18.32555621355532    7.79301491628163
C        14.45762903333070   18.08401823520608    9.91181334242504
H        14.59279600011764   19.00606439985464   10.44099941791287
C        14.43353201023075   15.66506432428977    7.29792654267718
C        15.29428734045963   14.57928556684123    7.22433328932663
H        15.88625333416961   14.31805356172255    8.08761070691912
C        15.37754483223374   13.84346221941739    6.05703761467397
H        16.04484245735939   12.99751438976244    6.00036028806981
C        14.60606903857488   14.20213024063692    4.96513750704516
H        14.67170284439304   13.63799114827897    4.04685363839393
C        13.73746298105384   15.27564690274166    5.05229224114578
H        13.12423275845823   15.53861109321558    4.20205641831046
C        13.62200898123580   16.02152358055683    6.21925953784348
C        12.63692432830101   17.14479526114419    6.31716278472661
H        11.87066299607222   17.04075237342828    5.55314273227774
H        13.12639447237721   18.10748591056675    6.17170827590043
H        12.15434979062226   17.15846715154919    7.29350679264735
C        15.69237736054498   15.60084228421040   14.02155113813421
H        14.76449267155477   15.35949427062408   14.53786937602220
H        16.53052507887154   15.37088926333266   14.67449253988609
H        15.75336358743722   14.97584348788907   13.13164403493199
C        15.72524967386559   17.03940725907491   13.65170920484570
C        16.61445113573248   18.01923656432523   14.03275372414033
H        17.45246046621794   17.90303468147190   14.68948189482911
C        16.17266733627354   19.19109133233543   13.38437555135457
C        16.72496529605662   20.53395835098420   13.43293730561052
C        17.93621556873685   20.80049811324190   14.06876109380006
H        18.48707079742952   19.99661898171949   14.53346025810670
C        18.44111765565464   22.08650961937754   14.10481401597782
H        19.38171120116610   22.27997148764282   14.60112941599951
C        17.74881875871139   23.12694371821405   13.50807233346648
H        18.14643920229452   24.13117140704069   13.53821753529135
C        16.54382483279263   22.87263055737517   12.87240152120632
H        15.99956508980887   23.68199805459440   12.40575117398966
C        16.03560576001228   21.58978575238295   12.83522428833364
H        15.09596294222447   21.37839220909708   12.34760308788815
C        10.94091955299270   11.87248995430319   10.09472456854552
C        12.08822689697836   10.15985814445179    9.32625815302929
H        12.41813349679605    9.43026229363924    8.61654482504898
C        12.46291912956773   10.39929825629626   10.60424150441296
H        13.18284704339999    9.89364573559361   11.21108483839462
C        10.42609617930945   11.13710040084305    7.78208116629096
C         9.59183332936996   10.06651603234088    7.48541287455265
H         9.49751655282689    9.26032674317975    8.19825989748680
C         8.88717049471487   10.04441625668177    6.29767656194053
H         8.23655954733990    9.21372306365765    6.07131071285367
C         9.02059017523396   11.09632547917784    5.40669480286765
H         8.47122315133357   11.09009235573762    4.47723999955691
C         9.86136248794600   12.15212733569584    5.70311411939434
H         9.96875021098453   12.96583492954646    5.00095792120800
C        10.58612778185198   12.19598545140172    6.88938703134761
C        11.49753691105983   13.34261442888585    7.17518728492610
H        12.37073754356104   13.03238275552114    7.74613434956515
H        10.97023516170320   14.09905687903897    7.76029164488535
H        11.83065636397082   13.80599216548063    6.25055866891592
C         9.84690066388242   13.47986532510340   13.32126723335510
C         8.31021897318024   11.92266792144496   13.58979824323770
H         7.35702936373411   11.50988096678039   13.84438749944957
C         9.45776454302409   11.33326552221389   13.18667749077419
H         9.71137765646884   10.30452165864611   13.02580706408295
C         7.61424583523106   14.26409564670074   14.02103991869136
C         7.84793921991729   15.05005580867153   15.14037694486194
H         8.75283124288605   14.90045015816164   15.70841845375408
C         6.92980464763944   16.01564760136535   15.50866780845346
H         7.11259183566036   16.62881077714248   16.37742278622994
C         5.77726834807267   16.18510447751597   14.76102283137678
H         5.05094408825899   16.93110294706756   15.04696055824095
C         5.55995285083563   15.40909791465640   13.63623182325018
H         4.66705587606374   15.55963127816254   13.04618641969770
C         6.47481503743851   14.44322010857613   13.23431428952929
C         6.25291754493912   13.65079541741133   11.98349624019981
H         7.18535107884209   13.50930502386965   11.43868644160222
H         5.54662448406251   14.16247724483210   11.33462437458702
H         5.84519757382022   12.66634073733994   12.21187164904506
C        14.09115424595104   12.19038704342233   14.71277408137147
H        14.65391842603958   12.53824872096502   13.84786018978364
H        14.78204357214873   11.99500840072996   15.52895427946561
H        13.40675846047955   12.98420726231239   15.00889565657848
C        13.34088718323767   10.95104109414640   14.38347612761654
C        13.43857038394722    9.69594247590392   14.94128266162995
H        14.10273699942199    9.39339506491139   15.72511878699652
C        12.49310479620398    8.91029950390014   14.25012706762352
C        12.17120643910197    7.50288525792531   14.41196364449193
C        11.31448622681215    6.87840643079890   13.50458607363123
H        10.90957704805363    7.46523906810199   12.69399743350548
C        10.99818441163024    5.54177587656306   13.64116002898894
H        10.33353156366618    5.06961145973836   12.93106513059925
C        11.53175879661295    4.80223340819586   14.68483579639225
H        11.28539831314436    3.75560946961460   14.79125299678460
C        12.38307307806922    5.41203189493797   15.59104266785642
H        12.80088440947064    4.83952213574381   16.40726933513821
C        12.70134097175347    6.75038921518498   15.45841735959142
H        13.36200440673824    7.21638893801761   16.17401937532612

