72
CSD_code = OJEKET | q = 0 | S = 0 | Stoichiometry = C30H28BN7O3S2Zn | MND = 4
B         4.70816994938087    1.94419903849706    7.28101370902751
H         5.22557318852604    1.21157818232598    6.50128359111083
Zn        3.13234727753530    3.54438231755132    9.71649747034440
S         1.49930966066869    3.08965976871502    7.92369162987724
S         4.62373574873502    5.09263370113490    8.59903824738789
N         3.90461115756239    1.15323683180434    8.30535270781147
N         3.73628265018755    1.62069689635200    9.55904651619776
N         3.84753123958507    2.95334573046317    6.48653572567026
N         2.29174585296586    4.24759543955956    5.64668731676758
N         5.83044553186679    2.69082019412213    8.05116457371640
N         7.05090354652739    4.11748773004404    9.17783359172563
N         2.89083065193488    4.17411977435396   12.02971011946385
C         3.33201210686819   -0.84156628263245    6.92793204914397
H         2.86697786067249   -0.26283225312858    6.13192181379184
H         2.77283328429535   -1.76167274343995    7.07180454551740
H         4.34640959354145   -1.08747215062322    6.61817305956109
C         3.34079237220521   -0.06111838220933    8.19037810834215
C         2.79097609619066   -0.39091696953634    9.41622248410164
H         2.27088047290295   -1.28990513058615    9.67583192064092
C         3.06213341531550    0.69548727447229   10.24915717609017
C         2.73578458488998    0.88704894312487   11.65973231672555
C         3.72526272251559    1.28593468370579   12.55555054287583
H         4.73454258857876    1.43233276419466   12.19881213503250
C         3.41379186783491    1.49090170865671   13.88698868280042
H         4.18140610285095    1.81217627516666   14.57466555909047
C         2.11717428448078    1.29907437783133   14.33406213876541
H         1.87356248823871    1.47453474684443   15.37085716208878
C         1.13306031104909    0.89020691558138   13.44944917277587
H         0.12101577964219    0.74398771488232   13.79671894069092
C         1.43841334097886    0.67862434398397   12.11768563771793
H         0.67164499698742    0.37836403837021   11.41898188258107
C         2.60476926143190    3.43218605191440    6.67997539358163
C         4.31815303404218    3.49648040389791    5.31780365852060
H         5.30065683754456    3.26925752372324    4.96080648053137
C         3.36027115846812    4.28801203201079    4.78866120850169
H         3.34409081223193    4.88062568730853    3.89777282403508
C         1.05386808805157    4.90313260846371    5.42456144094383
C         0.29551665749547    4.48565512170779    4.33802363064373
H         0.65941105626941    3.67545767711093    3.72281661904709
C        -0.91334585938936    5.09319547912703    4.06028022302103
H        -1.50279365581242    4.76360413556025    3.21854824646826
C        -1.36123677634838    6.12059608667237    4.87394476405035
H        -2.30752823544532    6.59833660875955    4.66945237764905
C        -0.59533959690290    6.53998606090024    5.94478306523551
H        -0.94652704006198    7.34734179273897    6.57025134011650
C         0.62930459239618    5.95056046599078    6.24195474895485
C         1.44004955052409    6.43823424289671    7.39625165903999
H         2.50817392204924    6.36645956314090    7.19864576582457
H         1.22493391381473    5.83375298856751    8.27976241846491
H         1.19229980500044    7.47062452438754    7.62918135776094
C         5.84516822101209    3.91097152135595    8.60901303196869
C         7.04956764405772    2.11625337699744    8.29766761101455
H         7.27516805559269    1.12883587494390    7.95361437045557
C         7.80995040144830    2.99159805186610    8.99345253200868
H         8.81638151981400    2.92368861204239    9.35129923195564
C         7.45370143677399    5.29610848076742    9.85867748363445
C         7.68821785431756    6.44266215660492    9.11512559956744
H         7.54513427248955    6.41621930755808    8.04540790630138
C         8.08598581421078    7.60423932348921    9.75062850738626
H         8.26505906036237    8.49904440839741    9.17498803348466
C         8.24672640508672    7.60910305809998   11.12537496944275
H         8.55698993694114    8.51191600833424   11.62964734501675
C         7.99985639067867    6.46297809852664   11.85961630395488
H         8.11057119713115    6.48135262678201   12.93374415693397
C         7.59382917544357    5.28409685662132   11.24687265470017
C         7.26782523890485    4.06598787949407   12.04987459543664
H         7.78952737545312    3.18566420498937   11.67795471535372
H         6.19623243282034    3.87413849949474   11.98916087007823
H         7.53141276973451    4.21554584934138   13.09319855822510
O         4.02476607387837    3.97014561252970   11.56526169813151
O         1.92939193612974    4.05735155108999   11.24634519099330
O         2.72934853682115    4.46965410619023   13.17541688413487

