109
CSD_code = OJELOE | q = 1 | S = 0 | Stoichiometry = C46H50BN8S3Zn(1+) | MND = 4
B         7.75488713873109   14.94144795734736    9.50583166289448
H         6.59112218943501   15.15963375303635    9.53073499779655
Zn       10.85957359605372   13.83541629814194    9.18823479659639
S        10.92011334024760   16.05645310752811   10.19381866544555
S        10.02902747643374   14.18761013771613    6.92952963191670
S        13.15045419210869   13.07626025738038    8.88598387438843
C         5.79628280139767   12.72779318179216    8.45128662825879
H         5.80264664726747   13.45058448040815    7.63794794515693
H         5.17086071945522   13.12398371851570    9.24952236599366
H         5.36242920894530   11.79723475293190    8.09718161367908
C         7.17474357165922   12.47842734722061    8.93764031424415
C         7.83734976171692   11.26856275074113    9.05380343597614
H         7.44913540829000   10.29827323206046    8.82398805930480
C         9.10712139621068   11.57845819425663    9.54413272714862
C        10.25431311798246   10.72341639324393    9.81166011839292
C        10.46602960632700    9.57249918261975    9.05550494866547
H         9.76184459424970    9.30740356181864    8.28144895262341
C        11.58345718437251    8.79074949631603    9.27876537361522
H        11.74298217399468    7.90312351315602    8.68522547947520
C        12.49775922453185    9.14404551450960   10.25769233423957
H        13.37065103642707    8.53269330228485   10.42837354368697
C        12.28869766411434   10.28014350960549   11.02195941584511
H        12.99506378828788   10.55230407693777   11.79147438562838
C        11.17384360823007   11.06774666356766   10.80303943378800
H        10.99223741091613   11.93478245761632   11.42658513540201
C         9.56602823053268   15.83980678067637   11.20928838816392
C         7.60301270825583   15.34698765990127   12.02359455560403
H         6.59026091423489   15.00402468155021   12.01459526951009
C         8.35621153615703   15.80951143132249   13.04701461734926
H         8.12339696142480   15.95955039423561   14.08027713135399
C        10.65928816048535   16.65653864909897   13.28192793004370
C        10.99709235426013   16.05637718230165   14.48737825109329
H        10.46473903188474   15.17831593812629   14.82173184308762
C        12.02448065357592   16.58284565876206   15.24679539334935
H        12.28212110023143   16.11066129244110   16.18305968038404
C        12.72861170478599   17.70570141541300   14.82648224263303
C        12.37519363058598   18.29064732345628   13.61485310603283
H        12.89945917217938   19.16675580100925   13.26656794785767
C        11.34889729895814   17.77890738806248   12.84478362942466
H        11.07481093232013   18.24922498496123   11.91333945905235
C        13.83562444033296   18.27554706413149   15.67528755880155
H        13.95422244379801   17.63560818243141   16.55578506533603
C        15.16222815514658   18.28712259700030   14.91285733441469
H        15.40672046156952   17.28802074719888   14.55882720719120
H        15.96183728214137   18.62674950309002   15.56608740297960
H        15.11484258016522   18.95529808405941   14.05681543478955
C        13.47134232818571   19.68290048003711   16.15454077384915
H        14.24700175448504   20.06313755913417   16.81422507194086
H        12.53090286363926   19.66771923626665   16.70078672084388
H        13.37059889903774   20.36582228841780   15.31482063550771
C         9.20844732112979   15.61520138253317    7.36968990670311
C         8.02016676553776   17.16389394383826    8.35209731200738
H         7.35430594664906   17.58301773691101    9.07676795530394
C         8.63223909845668   17.74463644089443    7.29732796193087
H         8.59508655121025   18.74680397540948    6.92473665008553
C        10.17468328472966   16.94924844383791    5.53298376300970
C        10.02227333857904   16.12558231263491    4.42630712142264
H         9.27856316767607   15.34468855828143    4.43636524181592
C        10.82767056154419   16.31473949061848    3.31948319089409
H        10.69222627813407   15.67412556116948    2.46177619823656
C        11.79186981453973   17.31786877487287    3.29190942727023
C        11.92024090918646   18.13952997517978    4.40619067386834
H        12.65500765146337   18.93112165425669    4.40248577256023
C        11.12102670729547   17.96409753548666    5.52091065580775
H        11.23103314883688   18.60510443895075    6.38294569081323
C        12.66754831553783   17.52084296305235    2.08152281869710
H        13.35571190251525   18.34660664863230    2.29128063396574
C        13.49882284973069   16.27067869551080    1.78195882675250
H        14.12607560561841   16.44506972680094    0.91172919627489
H        12.86142490222997   15.41495492255953    1.57542335079320
H        14.14618886489533   16.02250230936723    2.62122332834090
C        11.81753116266172   17.90613797525976    0.86831533138657
H        11.21513599839724   18.78404822819216    1.08962449458310
H        11.15245491248015   17.09443531081455    0.58587296682118
H        12.45928334469803   18.13322775307904    0.02111318915568
C        13.44715126304644   14.39415111065184    7.84970401594838
C        13.81534343708996   16.47148675399520    7.17005832557021
H        13.97060022701518   17.52605353672229    7.25595575695170
C        13.78137255527012   15.67072484139294    6.08014955583174
H        13.90320543823486   15.90500419016817    5.04365144400059
C        13.38557477871112   13.26928583472352    5.65601401920130
C        12.62102203997414   13.41890272273331    4.50687626909772
H        12.15976116702184   14.36888955167860    4.28620314260235
C        12.42755651886876   12.33367864264175    3.67483133584528
H        11.82513333339093   12.45186585250155    2.78632172911260
C        12.98228464589509   11.09258398658074    3.96663020794755
C        13.74924056712794   10.96752456394804    5.12042157163267
H        14.19651530752673   10.01863563539066    5.37078462871646
C        13.95697801729899   12.04207226083702    5.96300163805638
H        14.55928751361615   11.93197906422892    6.85045525053468
C        12.75192200544154    9.91742598865473    3.05215585640573
H        12.11311920744702   10.24726385062814    2.22597394380987
C        12.02894122780693    8.79061491826184    3.79337483557910
H        11.79908893659058    7.98079402940021    3.10558253628208
H        11.09864296979961    9.15549965286204    4.22319633372862
H        12.64620841054148    8.39410874632464    4.59515609546325
C        14.07485876348780    9.42219971756089    2.46357193494572
H        13.88932958095179    8.61597700312844    1.75850547022535
H        14.73253259706020    9.04952462074974    3.24432698743074
H        14.58412742926550   10.22830377222395    1.94015966572807
N         9.18708463004650   12.90251529078304    9.72588879978072
N         8.01447608468992   13.45106634501282    9.33924448018093
N         8.35298967717682   15.37350167370964   10.87766762325061
N         9.58430569161954   16.12978945587554   12.52822378317457
N         8.37556212188390   15.83782408310689    8.39872754110894
N         9.36492401055144   16.76727381371428    6.67596545654298
N        13.61323556578085   15.66843288970485    8.25816387479628
H        13.55814124223804   15.96441220072175    9.22205516613518
N        13.56251217812718   14.38443947773595    6.50827057515425

