114
CSD_code = OJENEX | q = 1 | S = 0 | Stoichiometry = C51H57AgN3O2(1+) | MND = 2
Ag        8.45323873636705   10.42230643444497   13.74811252844640
C        10.12007161700502    9.27994035512927   13.09500590797198
C        11.59580559859777    8.13546845278421   11.69726687575381
H        12.35144994240705    8.63036465793074   11.08176559414705
H        11.32157163745104    7.19605927027196   11.20920794856560
C        12.03595895637225    7.94836126164963   13.15263342614069
H        12.03295430382539    6.90219945547158   13.46983292836246
H        13.02790142150464    8.36171573395689   13.35520518889115
C         9.66068471697983    9.39646197574817   10.70213488113908
C         8.59956599984657    8.59823293532990   10.26506690179773
C         7.93903959027323    8.95932253421705    9.10245898998817
H         7.12959511537877    8.35050308095969    8.73645885881634
C         8.32025872712889   10.07834654672444    8.37301313256327
C         9.33690640742925   10.89033795483306    8.86389865813948
H         9.59269760996985   11.78816557791521    8.32418971985616
C        10.01857862605765   10.56723225393821   10.02554403616268
C         8.14370503724795    7.39200091879322   11.05194321333860
H         8.89323855375892    7.15494438855233   11.81329859384789
C         7.96120703018996    6.15644408793002   10.16980960841948
H         7.11865791498851    6.27483023214966    9.49514159150812
H         7.77456035545948    5.28236706818504   10.78926333858258
H         8.85384092230164    5.97409250912854    9.57562542433667
C         6.84088904035597    7.74396043908996   11.77574593153264
H         7.01228931603559    8.57854880119369   12.46964862705931
H         6.47636504664269    6.88894960534645   12.33953181304659
H         6.07647776449642    8.04710004618781   11.06474953934152
C        11.07764276894815   11.49038535807606   10.58258980994234
H        11.68010496240802   10.94094330921149   11.31186496378984
C        10.38413740959639   12.63742932841165   11.32444871591640
H         9.74171622775633   13.19507539054353   10.64745805403468
H        11.12124390075976   13.31746858181833   11.74366302506603
H         9.76884069313849   12.23843322484671   12.14368643182516
C        12.01900867295016   12.03245351761985    9.50683227973481
H        12.41015470752508   11.22223096473428    8.89573743473054
H        12.85589338862608   12.54674804845174    9.97323477125777
H        11.51285143074250   12.74151361535126    8.85821477756964
C         7.71167783916940   10.35215771923089    7.06380915512136
C         6.33421589598955   10.23477490686864    6.84279969239633
C         5.79505373387432   10.35992634837720    5.56264621783223
C         6.64165536256033   10.68877308917049    4.51491630322915
H         6.25139372665781   10.80685121033089    3.51837030981206
C         7.99833983265613   10.86025402592980    4.72674149860054
H         8.64235165800829   11.11621362101018    3.90003247213780
C         8.53112266054757   10.67051853846010    5.98551086301607
H         9.59603310299979   10.74846833636880    6.14288137808234
C         5.64785277584725   11.39189595177528   14.32226463849059
C         5.34282894722979   11.91782593582741   16.46943476688729
H         5.00718579685876   11.17569977602936   17.19820189474754
H         5.04662482069873   12.91337709466588   16.80555271836207
C         6.84617442480126   11.80761327374198   16.14189084114690
H         7.37553962327509   12.75537823787469   16.26830770403737
H         7.35621816428451   11.04822671396673   16.73898949169936
C         5.21631352343556   11.12267366296386   12.96027867623749
C         3.92387033618748   10.64185998285287   12.74415269284256
H         3.30210692049702   10.39775763767617   13.59150709384187
C         3.44579021736614   10.49379667127726   11.46215691976636
H         2.44867761945109   10.10982284609953   11.31121476376740
C         4.22202557419033   10.85020921559908   10.35468702451170
C         5.53479972349922   11.27200245755727   10.57651216386289
H         6.16157449142269   11.53937447966599    9.74125254826963
C         6.02814562118952   11.40218710663222   11.85886173044490
H         7.02953578313376   11.79475703170144   12.00979341364167
C         3.59207764832518   10.87399354304060    9.02680479289023
C         4.24260382099508   10.49545573876453    7.84403933536136
C         3.59377175446843   10.56461770471796    6.60903764308679
C         2.29751153186295   11.05266534300011    6.56068901209533
H         1.78062327456085   11.12827706078053    5.61926735962127
C         1.64458555625202   11.44295542197380    7.71630288508498
H         0.63633837209872   11.82251048363909    7.66297361279488
C         2.28086266283199   11.34142948422792    8.93485572037046
H         1.77503196336458   11.66724269336915    9.83040477126803
C         4.32538700255581   10.02988822943235    5.39249913435709
C         3.75131631679419   10.55591918306466    4.07803495350841
H         2.71246416395269   10.25697879323701    3.97196866099940
H         4.28932257259615   10.12895052800757    3.23641690784923
H         3.81661912915983   11.64046843444706    4.02959377042376
C         4.19206376389715    8.49196702961637    5.40704088520472
H         4.58384794177015    8.07493091321151    6.33240246323201
H         4.74522977693151    8.06272853905467    4.57461860650173
H         3.14573432935869    8.20851225277207    5.31837218869840
C        11.03148581350791    8.79098966881857   15.30459739783042
C        11.72606892767013    9.83925954815145   15.91610900588284
C        11.75762378048629    9.88482111718493   17.30361510188830
H        12.28363090775259   10.68360722863831   17.80120166279941
C        11.12054311492842    8.91827072843063   18.05800309462244
H        11.16096950320602    8.96410639774910   19.13551306015356
C        10.41824290559978    7.90204714620029   17.43867680635684
H         9.90784937618887    7.16757403863459   18.04091391683767
C        10.36174255311973    7.81849670384298   16.05378075224026
C        12.36334304272731   10.93731871098403   15.09749176451964
H        12.40220160843582   10.62587719183737   14.04957805660500
C        11.47809660804293   12.18492220070620   15.17669300439244
H        10.46644148159762   11.95092238832883   14.81458829906720
H        11.89239585170236   12.98243463068131   14.56541614663947
H        11.40347317870344   12.53599273354728   16.20263714155116
C        13.78968770629880   11.25024910648018   15.55064199486510
H        13.80017704397947   11.71901137446530   16.53013867282552
H        14.26020564647435   11.93341571886808   14.84768207362527
H        14.38465313825032   10.34111040022318   15.59895364111038
C         9.53240555712135    6.74826689995610   15.38293333150824
H         9.76824333629443    6.72931670270993   14.31488694217041
C         8.05196078553517    7.11591056355414   15.52172308941363
H         7.76393649977237    7.15438448598532   16.56925583533121
H         7.42968901573337    6.38145014376286   15.01676565934538
H         7.86771493863160    8.10139982681005   15.07253292504337
C         9.80482552787371    5.35509547094499   15.95045116018640
H         9.45011339040346    5.26703893041914   16.97308872847609
H        10.87044727607397    5.13800729377601   15.93712191408106
H         9.29240552082876    4.60518383355433   15.35248938734142
N        10.41568903638425    8.99155146781906   11.83611848162395
N        11.01685386360903    8.70278813057416   13.88482356102119
N         6.86022761193865   11.43496444055133   14.73904136113639
O         5.53177501162450   10.04199233913818    7.94124355161096
O         4.70027653137057   11.65189727172814   15.22501928015049

