69
CSD_code = OJEREC | q = 0 | S = 0 | Stoichiometry = C24H34CdN6S4 | MND = 6
Cd        7.32533387738066    8.93968454610328    3.00991921167376
S         6.13180142021066    7.27168770278028    1.26108296609563
S         8.89635435706036    8.26616820537840    1.00364720749320
C         7.57509955780479    7.39080956602186    0.37202890060913
N         7.69681717382075    6.79516446319143   -0.81721161522793
C         6.60521485613472    6.11097122313227   -1.46701624552277
H         5.71754377190364    6.16819260895375   -0.84202931561657
H         6.86764716903940    5.06176311512241   -1.62125914644022
H         6.41620631243899    6.58545366880166   -2.43112706270236
C         8.89408705783980    6.94918588467842   -1.61382017674587
H         8.97501113929822    6.07932573922542   -2.26739100981156
H         9.75902901077091    6.98265614670421   -0.94773719035363
C         8.85114947118508    8.24394438488867   -2.43642085975869
H         8.60637637059046    9.05728999349759   -1.75010159458178
H         9.85274513370293    8.44142040164246   -2.84911958214322
N         7.83939632240688    8.17790510017061   -3.48043432284723
C         7.22559583311967    9.46141037276135   -3.74487751895526
H         7.94119188715538   10.21287986258042   -4.11377018456217
H         6.76605719929369    9.83073300227324   -2.82876133870454
H         6.44613718696136    9.33161899051007   -4.49529195642303
C         8.35219151617514    7.57730693240110   -4.69404279255678
H         7.53330201610661    7.44188727965220   -5.39968024848464
H         8.77623236443554    6.60109934981300   -4.46761290600269
H         9.13028722991957    8.19231453444849   -5.17325679842119
S         7.67008851237127    7.91656868425616    5.39509223081127
S         8.53123438776604   10.63344159512532    4.59443517256429
C         8.41427366547352    9.40579215395518    5.76225312797381
N         8.89950358945054    9.62807873505956    6.98932108033744
C         9.59873079998059   10.86140577968894    7.26576721104252
H        10.45174613856802   10.98203435095640    6.59344797933056
H         9.94339971449275   10.85528773223215    8.29610010321975
H         8.93046076125147   11.71012953493332    7.10558194222923
C         8.91524967570285    8.59040081477928    7.99428076075146
H         8.03204434839919    7.96691302983790    7.84647273150779
H         8.86786262570541    9.05108132890527    8.98320950606929
C        10.19000279443628    7.74112434776017    7.89088638410240
H        10.14849168892118    7.14974214084178    6.96024566131988
H        11.04605199001750    8.41868522436424    7.82446791847623
N        10.37685916374282    6.90722204716536    9.06481770814393
C         9.40531646268610    5.83263520970937    9.12722025899297
H         8.40407101562304    6.24838942020605    9.20970568969005
H         9.60113601559241    5.23149067097564   10.01377922256926
H         9.44262130302748    5.17972196431922    8.24214294272620
C        11.72645203751353    6.38134217456327    9.11830104372977
H        11.84417036481852    5.80200658507890   10.03287828737020
H        12.43514224724826    7.20827283262303    9.13989008791429
H        11.96708479953457    5.73471294726553    8.26038980142604
N         4.98735586499460    9.53640284529264    3.47095120337798
C         4.27423450019040    8.98227402612982    4.42337015376220
H         4.82331514656449    8.64051877324664    5.29303463693860
C         2.88578009056703    8.82479260138113    4.34614748813466
H         2.35030474196514    8.36186150496083    5.16010357135847
C         2.23329485209027    9.25791928234056    3.21865314398580
H         1.16336973964135    9.14657660674155    3.11206593743073
C         2.97312006438629    9.84955056103392    2.18106657137603
C         2.37254141457388   10.30773744874840    0.97352378983683
H         1.30348730637715   10.19684544673162    0.86327543151159
C         3.11969177278475   10.85717175045058   -0.01248976785892
H         2.66403707030152   11.19687036493722   -0.93143027945787
C         4.52910157703355   11.00143739275592    0.13095959176742
C         5.34082997889577   11.56382839676053   -0.86822549303449
H         4.89060866500422   11.90218128717683   -1.79126485237552
C         6.69314048901758   11.67357244458791   -0.65402415989969
H         7.34487560213863   12.10535373617580   -1.39789323274279
C         7.22353427820588   11.20991916319158    0.55552535613837
H         8.28585820746180   11.27429413697378    0.75898692543155
N         6.48650909215632   10.67554348069805    1.50085397887889
C         5.16300928262486   10.56432018641562    1.31692074082070
C         4.36949792554585    9.97067618434485    2.36168599235333

