75
CSD_code = OJESAY | q = 0 | S = 0 | Stoichiometry = C30H41BrP2Pt | MND = 4
Pt        9.01998211344865   11.82792068531514   12.18751579394213
Br        7.06372144872863   13.25005987796001   12.46623614521816
P        10.27398616239739   13.69048355379797   13.03667527046084
P        10.69243321639981   10.28534116153587   11.83037674627473
C         7.70419792507880   10.39852980995457   11.61412016505155
C         7.38490097944544   10.21216676428048   10.27354575581386
C         7.88451540767945   11.08623054763158    9.27108717214257
H         8.48952954542947   11.93072621326476    9.59576715311183
C         7.59601927627678   10.89624166227908    7.95739956190640
H         7.97444176247979   11.57269113122255    7.20431063143468
C         6.78251186165363    9.80919692501915    7.56237033709932
H         6.56346002200375    9.67334016312743    6.51274165359671
C         6.27317636252589    8.95418456515067    8.48830784728408
H         5.64008216034787    8.13034400572117    8.18857510351538
C         6.54418747527498    9.11874569445328    9.87343633042400
C         6.04229316887933    8.25802710085012   10.83667164180741
H         5.43066910922026    7.41840071512175   10.53603877393508
C         6.29740738352688    8.46111857069390   12.19814371003109
C         5.77374904488886    7.62839921453001   13.19489831723019
H         5.14847075495973    6.79591530365728   12.90057266003781
C         6.01691680572522    7.85035880440629   14.54149242488481
C         5.48528844944685    7.01015282421875   15.55671613802863
H         4.88332312990028    6.16379299701029   15.25628148597269
C         5.72247688199831    7.26293625771290   16.87083588880424
H         5.31215189299957    6.61930970134701   17.63587876633594
C         6.50636104352960    8.37420082410752   17.25852413653861
H         6.67617581627466    8.55442537266126   18.31035900436365
C         7.03522805695272    9.20364461497446   16.32069071889060
H         7.63229671737825   10.05739185020065   16.61102251125164
C         6.81596021984864    8.97453200193629   14.93649584855174
C         7.34624367449689    9.79703382848002   13.95616775556668
H         7.91813423035018   10.67760153162253   14.24751553971307
C         7.13001541686511    9.56729743592157   12.59233726335482
C         9.83216323150867   15.32309599098371   12.29640830341691
H         8.81815266813082   15.56101147079162   12.62596067356684
H        10.50820629618337   16.09523425002930   12.67129878756165
C         9.86802253626881   15.26068821724567   10.77437135264749
H        10.86796914479022   15.02731964987433   10.40960819817897
H         9.56025988690353   16.21147283045888   10.34452566792859
H         9.17712212176448   14.49393965422233   10.42242365169668
C        12.13290427891503   13.80420347553556   13.09768340850389
H        12.50710654564328   12.82737677129182   13.41832206328925
H        12.45499563330556   13.94938632039353   12.06152253583337
C        12.74353710090143   14.88629835439003   13.97872467707549
H        12.36094117737418   15.87261508612657   13.72810722866988
H        13.82360623610300   14.90279745116375   13.83846042003038
H        12.54685454650347   14.69716413012034   15.03083885876823
C         9.78793736510459   13.97113114523609   14.79283670612954
H        10.23118046972177   14.89931197978255   15.16166404538334
H         8.70053860410530   14.09166441094885   14.79239654093363
C        10.17197467628120   12.78145042981780   15.66505303012243
H         9.78062007705849   11.86090902905789   15.22983545739499
H         9.75949452712647   12.88867608558727   16.66637865792041
H        11.25316360094165   12.68241200173927   15.74993613479697
C        12.09257545142716   10.91986305671793   10.80659682211208
H        12.68596196715637   11.58753533369424   11.43490348220847
H        12.73228161624766   10.08624458763524   10.50877135311795
C        11.57561154169768   11.67359835828538    9.58932073805429
H        11.01043562537305   11.01330101206496    8.93486622520757
H        12.39724245088691   12.10394378363733    9.01960717790469
H        10.91736358437406   12.48101981807060    9.91150546054868
C        10.21672321656166    8.72399252847530   10.96427730393733
H         9.41552057960464    8.27847596168649   11.56095596079445
H         9.76772797690863    9.02286201394098   10.01267303445170
C        11.31748882984762    7.69928492949092   10.72098042760769
H        12.07606653984835    8.07819191301585   10.04047236739613
H        10.88164669186342    6.81146454166813   10.26671372208750
H        11.80005184839389    7.39808238000025   11.64740302634738
C        11.61069994744934    9.68945808038188   13.32061357942413
H        12.52692296176533    9.18869110215751   12.99492172737609
H        11.90070503336830   10.58010307369472   13.88540732239016
C        10.77361550264705    8.77504451912733   14.20593694341447
H         9.81724943098565    9.23721864052310   14.43905590720631
H        11.29435893885497    8.57107645930197   15.13951074172202
H        10.57249202372661    7.82644746148472   13.71494202417565

