99
CSD_code = OJETUT | q = 0 | S = 0 | Stoichiometry = C34H54N5OPSi3Zr | MND = 6
Zr        6.07176469299568   10.27137032912262    4.98113412944825
P         6.41570315574983    5.88120593676045    4.86541173413578
Si        4.32375838194792    9.32318045759595    7.90104204145800
Si        8.93899429305144   11.14864597155737    6.32328965607335
Si        6.62298224953615   10.52551599226037    1.62441533316733
O         7.13201055832237    8.50791752499387    4.97809572487659
N         4.84086237467449   10.42200215266953    6.70043355662693
N         7.63983785328686   11.57923513223429    5.31716406045471
N         5.56916662704365   10.51309353204265    2.95533222532698
N         5.11138490413156   12.53673883742441    4.73803599225990
N         4.99465082402700    8.30519080122064    4.48312215906207
C         4.65229150889793   11.82203195817836    7.03622372466675
H         5.60771420091440   12.26935890056153    7.37210157839467
H         3.92669179670778   11.96216514311450    7.85132602328114
C         7.54353567544770   12.81316742853745    4.57695689404308
H         7.57091684877749   12.61735820362293    3.49175015362282
H         8.35994149314784   13.51050660249017    4.81573299975128
C         4.29433537258114   11.18597438475016    2.88933291550471
H         3.55545774295307   10.66024769686904    3.52344108128700
H         3.88631664205854   11.22982516875784    1.86801402483543
C         4.12605054810056   12.58792655360403    5.81510993359041
H         3.21192802707096   12.08342957710161    5.48101819511385
H         3.87419193078366   13.62934924076077    6.08176980429141
C         6.20482003660296   13.49508263489068    4.92893822251904
H         6.24972728496546   13.78450844516997    5.98243326123706
H         6.05142434274328   14.40451266222794    4.32923669816201
C         4.49199146644321   12.62248618164460    3.41353588525769
H         5.17888154802874   13.12343235006355    2.72752531844021
H         3.54808613360058   13.18814526931733    3.44323007071010
C         4.94970885108854    9.79666373232061    9.66424310964092
H         6.03295317258902    9.85763570613285    9.70858145304519
H         4.63270357785921    9.07124355988804   10.40710569924021
H         4.55740489174089   10.76232726162608    9.97051599470973
C         4.94366166455200    7.55073490726020    7.57995288573497
H         5.99539723758553    7.54834867277610    7.30832068814068
H         4.37746323364823    7.05640990873883    6.79708514385438
H         4.83639228853962    6.95580274150466    8.48052280204948
C         2.40171596173170    9.25574548678381    8.10600882431581
H         1.94253065556343   10.21183223477860    7.86645178698416
H         2.12862546843273    9.01665193601317    9.12889789051236
H         1.94758342482312    8.50437992867507    7.46745268485300
C        10.49288528772438   10.41735472005363    5.44499194660152
H        10.22905044768892    9.52011172350856    4.89209214871974
H        11.26651665918386   10.15012941332886    6.15854780327147
H        10.92742188059108   11.12248802873778    4.74190644897319
C         8.19594205958496    9.80903252321071    7.47232223072941
H         7.10564978995627    9.83006464246419    7.38069378097709
H         8.46177807908737    9.95657507882163    8.51455159200010
H         8.54359785184024    8.82038907220475    7.18737735615483
C         9.59281962867540   12.61632980973103    7.38579057984563
H         8.80083315427021   13.07379821324918    7.97097589960845
H        10.02340923941035   13.38832022149460    6.75611022701694
H        10.36667187149887   12.29464360641257    8.07388553428321
C         6.88141179025818   12.20128961244669    0.68633960684014
H         5.92881526367559   12.60755599854736    0.35648834782983
H         7.48611787497607   12.05270930544716   -0.20287365543297
H         7.37390725246429   12.96284754286144    1.28532357567627
C         8.31836875254920    9.99371564051220    2.33725148994036
H         8.22946296470880    9.86089288147131    3.42041641948454
H         9.08211643950210   10.74249681201582    2.15095746223684
H         8.67173550616716    9.06481728808681    1.90197227740809
C         6.01132387822871    9.38924640667345    0.18869117221802
H         5.23579386186792    9.89073145082240   -0.38320915419034
H         5.58866892182745    8.45613413729761    0.54838625032346
H         6.81157131936990    9.15039412191013   -0.50461503320055
C         6.14201705211950    7.74048720835458    4.71873512897125
C         3.81981755963621    7.66162409875294    4.13570028869967
C         3.75061341583649    6.53553901491722    3.31323720225803
H         4.65325297920452    6.11155734638459    2.89594929777576
C         2.52210696463286    5.98508653667191    2.99362645257534
H         2.48166336407531    5.11265185680179    2.35782685314564
C         1.35110476568861    6.54399046178995    3.47486513213261
H         0.39672788991888    6.10725251659405    3.22190383184678
C         1.41062347748588    7.67687418068939    4.27397520745572
H         0.49861052130556    8.12283074502031    4.64440560190588
C         2.62925025196943    8.23681272720713    4.59572012442937
H         2.70423664916440    9.11619292495391    5.22420455078097
C         7.31694029446936    5.64727475588430    3.28029357749530
C         7.27476888226639    6.56101566188270    2.23366262167775
H         6.73024460556251    7.49030548071894    2.34523641904962
C         7.94683453244890    6.29183530968031    1.05318736643766
H         7.91388427305044    7.00997749934066    0.24748874728327
C         8.65766374136490    5.11335567579801    0.90423359127418
H         9.18180863237294    4.90955595870082   -0.01797249287666
C         8.69511913515399    4.19446637383252    1.94151437436410
H         9.24688037012663    3.27239656694245    1.82910585201003
C         8.02364206517436    4.45698725175150    3.11961252802571
H         8.04827162159962    3.74329191011165    3.93243969601698
C         7.90252743864228    5.97037799819154    5.94996976170900
C         7.79668730947910    5.44762458861790    7.23465236739912
H         6.86377990851972    4.99870628647084    7.54743021932166
C         8.86963687902261    5.50465419569279    8.10615447958773
H         8.77688473575157    5.09955303126865    9.10346904866333
C        10.05967951562339    6.08285758034168    7.69846135898144
H        10.89781352225723    6.13341694151895    8.37815845854040
C        10.17534582402006    6.59489863663933    6.41588896850350
H        11.10422179452021    7.04503820969871    6.09701184858596
C         9.10627064679605    6.53648871099775    5.54076526462699
H         9.20304066293461    6.93787236041035    4.54211960335858

