108
CSD_code = OJEVAB | q = 0 | S = 0 | Stoichiometry = C34H63N6PSi3Zr | MND = 6
Zr       -0.26334900987723    2.58524339333932    4.10336240798452
N         0.58473121049995    2.43790621934311    2.14062184500526
N        -2.11903144037296    1.60432557947869    3.88569822237338
N         0.53690613041589    1.80494085602714    5.91734695393029
N         0.25013709725521    0.09082263677793    3.80617036348253
N        -1.16907936989692    4.55594933762419    4.50797019726020
N         1.03372937741735    4.42077333771463    4.80348543302711
P        -0.13034827891765    7.01452509484197    5.36866957191140
Si        1.22199260606588    3.53531361021957    0.99979706265845
Si       -3.28470815998709    1.89893295277653    2.67831558688617
Si       -0.22175334472620    1.56630688044349    7.41757392354225
C         0.35822438851822    1.10812802156648    1.59308025086906
H         0.82602294301084    0.97576944465224    0.60852949277383
H        -0.72237839921572    0.93079717717081    1.46530196890939
C        -2.08997816933551    0.28863260861032    4.49174255648611
H        -3.06379125894983   -0.21929107095907    4.43399257403135
H        -1.82015303042041    0.37479993271329    5.55131068753897
C         1.66274760834120    0.97798294513560    5.54297912322843
H         2.30922334229366    0.72191907460354    6.39676721232692
H         2.27607891146854    1.50179830711829    4.78323019558101
C         0.94183220713078    0.04190314693960    2.52333620289198
H         0.87776521449812   -0.96085732855206    2.06550971064085
H         1.99921134420454    0.28553779562199    2.67815046951524
C        -1.04250588238483   -0.59498106845332    3.78425250360301
H        -0.98049536025922   -1.58708107998013    4.25586344429393
H        -1.36481374958532   -0.72994996937491    2.74926642154032
C         1.11307615955920   -0.31366984028976    4.91411903691706
H         1.91580588370285   -0.98932199077500    4.58098063866964
H         0.52130677186881   -0.82587723527492    5.67470095105141
C         0.49728725279281    3.33680904861081   -0.77878228060506
H        -0.58806718197869    3.32416575630564   -0.77828695961380
H         0.83238205031860    2.41423515973465   -1.24384915263620
H         0.81245497235656    4.15112272471492   -1.42414913869823
C         3.11305860903322    3.30768474777990    0.66498823204885
H         3.73140803520484    3.52976401587516    1.52872515128029
H         3.44454254035196    3.95389617212372   -0.14208809341120
H         3.32928337486105    2.28455759793940    0.36687501107442
C         0.83584925069483    5.33534467137772    1.48756761671373
H         0.60662376100771    5.40693472150861    2.54442292550417
H        -0.00965743235014    5.71881040308730    0.92578930887260
H         1.68125311955871    5.98016180746730    1.27798274446657
C        -5.01642346646063    2.35673613528675    3.40350325908026
H        -4.93748496883775    2.96469071785379    4.30006859828399
H        -5.57074394019631    1.46205626847107    3.67092205995680
H        -5.61866929740871    2.90374204425097    2.68495423699050
C        -3.70474555593602    0.42803955544332    1.49610455481495
H        -2.88920882647837    0.18324493022275    0.82077299700788
H        -4.57083646654106    0.65849490441632    0.88377310208739
H        -3.94338898924796   -0.46880855531632    2.06085373298365
C        -2.59751897026302    3.31288578186017    1.59028830981176
H        -3.29195300981221    4.14190265382127    1.51805186524015
H        -2.40798789139765    2.97000867533320    0.57875078685371
H        -1.65309249968981    3.66924039757857    2.01272003484071
C        -1.86131796014836    2.53682668388299    7.24467981482853
H        -1.98642863045341    2.83179272263497    6.19487797580266
H        -1.86888217075009    3.42402267321689    7.86909436251600
H        -2.71629384968818    1.93626543930158    7.53860441648509
C         0.80570469735778    2.14092223847083    8.94598807931610
H         1.21365823390739    3.13911115794374    8.83522482490603
H         1.64274162699119    1.46964792451018    9.11682549876500
H         0.19981949264104    2.13072090696178    9.84683589507230
C        -0.65460781712985   -0.23241482878955    8.00651071645548
H        -1.33826496377188   -0.76276083073503    7.34905776363936
H        -1.11549620518254   -0.20729536272204    8.98959110276737
H         0.24602095241387   -0.83433564031933    8.09852589206696
C        -0.04642141101863    5.16771335878278    4.86425576635481
C         1.29745130418283    7.83753796425944    4.55224465812988
C         2.46696171591897    8.26817132013016    5.17471001841636
H         2.64423241434397    8.05292608029326    6.21927567191210
C         3.42086390431571    8.96868007598075    4.46085350064911
H         4.32636745389006    9.28998300014183    4.95563540171401
C         3.22538236166515    9.25857774164238    3.12029912718804
H         3.97803412977791    9.80061737417058    2.56695190002318
C         2.05382106358213    8.86029283676860    2.49908037220276
H         1.88439093519647    9.09550529202346    1.45821744761346
C         1.09291062559712    8.17088505531749    3.21392821251046
H         0.16996662268501    7.88024154124545    2.73220963092644
C         0.33720285106357    6.94919406396630    7.13080372933222
C         0.61211649423619    8.15272066877407    7.78165780381169
H         0.66510731603309    9.06822104788445    7.20724784683759
C         0.80640328013393    8.18292635935843    9.14863391768220
H         1.03757582001885    9.11768122336675    9.63923729821704
C         0.68257178191433    7.01951951721946    9.89132304876806
H         0.82097468697860    7.04367847017656   10.96225917794770
C         0.36399602332554    5.82965454720472    9.25816806878615
H         0.24011664465906    4.92961266663299    9.84168492251600
C         0.19536959392655    5.78770643795495    7.88565215230448
H        -0.04532741600881    4.85466569926891    7.39121823984714
C        -2.48396506370092    5.18344151629718    4.40300427880350
H        -3.13049571110646    4.37064650340395    4.04547470956427
C        -3.06666765491736    5.65881749904382    5.74268379759412
H        -3.13637040998161    4.83005656515348    6.44149654714585
H        -4.06526802192693    6.05723052629602    5.57542426500925
H        -2.45658124430765    6.44109843640004    6.19101287004713
C        -2.55510548194913    6.31338149232311    3.36110615216506
H        -1.95808687369975    6.05568128235812    2.48964980864319
H        -2.19651818554861    7.25541894588855    3.76982228799431
H        -3.58768347279753    6.45281728489830    3.04770871211433
C         2.31622101078006    4.91336199423603    5.25936806218324
H         2.17647291772549    5.88049758206550    5.76151529423325
C         2.94985827752904    3.96160888959632    6.28147954395773
H         2.18316473695913    3.53693066242963    6.92173577245728
H         3.66922799856947    4.50338472782573    6.89250756403388
H         3.46979694347999    3.15018118925810    5.77865042900046
C         3.27219750840467    5.09570825207002    4.07825432721325
H         2.92266556630854    5.87402706186857    3.40616662597708
H         3.32719722607049    4.15962641934732    3.52542368312785
H         4.26364811900944    5.36526863786034    4.43636709996128

