46
CSD_code = OJEXAD | q = 0 | S = 0 | Stoichiometry = C22H17Cl2FN2OTi | MND = 9
Ti        3.11777449648309    2.58040799742660    0.70472548794019
Cl        2.04962461065277    0.80903046756558   -0.05059351675143
Cl        3.72104532599991    3.02545704953293   -1.35722720583400
N         1.23270342604410    4.23473770894248    4.11946616863668
O         2.52422356853773    4.45541576236607    0.72961118458574
C        -0.84877194571335    5.03753130117032    1.89577772926440
H        -1.23202707447049    4.03493972825477    1.77901998853551
N         1.34401012286153    2.94500551805975    1.71959656120203
C         0.49383823948185    3.11893876372019    3.97630356953889
C         0.51033234251531    5.29016992419271    1.71861781836239
C        -0.31166995785071    2.59968847035199    5.02025698875311
C         1.46914875306929    4.21130626441676    1.40956450791936
C         0.99352948796704    6.59418343018297    1.81626338590738
H         2.04460422578941    6.77238324075404    1.64682985365006
C        -1.71002133830685    6.07141245432416    2.20739208772869
H        -2.76500786477792    5.89928139799891    2.35046751646724
C         1.18334602164082    4.90572176320971    5.24048433707929
C         0.54262227351345    2.43207923933990    2.72552711610418
C         5.38490645324703    2.27651707638946    1.09804368319706
H         6.16640829407909    2.31540506282546    0.34861962039052
C         4.96382299917991    3.35029451474299    1.91464732695700
H         5.35823986482461    4.35808291949785    1.88554173958396
C        -0.91268585863212    0.73157930982775    3.62643633973511
H        -1.44206088865500   -0.19753450153224    3.47826382500951
C        -1.01501989277991    1.39669545339378    4.81973093485697
H        -1.62844512165057    1.01088069105392    5.62061169987170
C        -0.13861660220572    1.24182502926177    2.57811135168462
H        -0.06799684145663    0.71160682617174    1.63941079485605
C         4.70952456299085    1.10898182623920    1.53003794962501
H         4.88619807878329    0.10196205923451    1.16788325575522
C         3.87648952767729    1.46546157742718    2.61570488630248
H         3.29254271440893    0.77956932419833    3.21698160962504
C         4.03635639152909    2.84815583043445    2.85335478793438
H         3.58892660075578    3.40775168449720    3.66467538211040
C        -1.19933152824867    7.35221733434015    2.33398376883576
C         2.02450277575653    6.13758336906037    5.34123268062114
H         2.61972900390117    6.25045481013292    4.43973975921329
H         2.68168819176815    6.07977598912256    6.20737852404593
H         1.38778103168526    7.01328885342648    5.45900684360833
C         0.14140232287130    7.63289482731402    2.13355605686962
H         0.49642176903897    8.64725281395607    2.22482026091092
C         0.37426970511382    4.49673311802939    6.32481631295946
H         0.35687727401443    5.09104081961733    7.22571608333112
C        -0.35378945600845    3.34637077407647    6.21894352894053
H        -0.96427182327747    2.99297950272688    7.03819312237518
F        -2.03517426215457    8.35748262267528    2.65687429169158

