49
CSD_code = OJEYOT | q = 0 | S = 0 | Stoichiometry = C15H26Cl2N2O3Pd | MND = 4
Pd        5.22118876306789   12.93731928758783    1.71735571599901
Cl        5.00931568801039   15.00532550769192    2.58582110061321
Cl        3.10028356324499   12.91867329424957    1.04094670654841
O         7.51830231841206   13.67446816196750    3.34364835841988
H         6.81708580201895   14.38774312128840    3.41126779764898
O         4.81638054677297    9.27603295073614    3.08188893511551
O         2.79879844306930    8.37658827308469    2.70337337285701
N         7.09188120708346   12.92558920659079    2.28363104134951
N         5.80487038902874   10.91816935516899    1.13192609706481
H         5.82242866703066   10.45731394454887    2.05232025377833
C         7.81529968468999   11.96729911162888    1.85152261440823
C         9.07472929132799   11.51810726332578    2.53444332035649
H         8.86401115163934   11.47534930161147    3.60877330792099
H         9.86495472533176   12.26276155977132    2.40980427783196
C         9.50127111969874   10.14880747342059    2.02053973913349
H        10.36132725931388    9.76473889951786    2.56780766254167
C         9.56985979592396   10.15336792453315    0.47710590749696
C         8.03389533223847    9.90328933650486    0.51879441518486
H         7.64100718532732    9.27532800804118   -0.28035504974687
C         7.20257023071056   11.18278962554331    0.69636266251678
C         8.24546688698314    9.27082875501408    1.90958611152203
H         7.47473903196311    9.43257246403966    2.66041538328839
H         8.46388046542786    8.20802279276591    1.86686454933993
C         7.10088407357354   12.02224775660612   -0.59239647868549
H         8.00520991840149   12.58576227244285   -0.78626341888887
H         6.26391909437064   12.73723198486701   -0.49820507257809
H         6.91145955837127   11.37243409592510   -1.44311069150210
C         4.99048636355359   10.03479460428636    0.29301763148321
H         4.76643524091483   10.53086047950695   -0.65492149096208
H         5.52152079357373    9.09460726378897    0.09315350844456
C         3.67310693632148    9.72554251942387    1.00599420395734
H         3.03691258144949    9.08603113899809    0.39707582958413
H         3.14398666511758   10.68451506254122    1.15477287383466
C         3.84827128854900    9.11257723859556    2.36542909524997
C         2.75758459029924    7.84641937117002    4.03176251276833
H         3.76267970516490    7.51558715074217    4.31360255845064
H         2.08586184001398    6.98819220530917    3.97186208145366
C         2.24224851449294    8.88370803159649    5.01790998829077
H         2.92442077319609    9.72935836864842    5.06063573427904
H         2.16659564361133    8.44142232354060    6.00696627775183
H         1.26260049900492    9.23945586825453    4.70930589163074
C        10.29324709456799    8.92555022001568   -0.07733963138190
H        10.16920076665137    8.87954229638546   -1.15743552734583
H         9.92063177185281    7.99843266848902    0.34593579248681
H        11.35705384975891    8.99198189306536    0.13990616689094
C        10.17247595357318   11.37486899940415   -0.20339208171244
H        11.24941854770418   11.36705978666152   -0.04305865876615
H         9.79034654718827   12.31273664798811    0.18313715621153
H         9.99399384040676   11.33529413311398   -1.27558853213757

