76
CSD_code = OJEYOS | q = 1 | S = 0 | Stoichiometry = C34H36NNiP2S2(1+) | MND = 4
Ni        9.05909844627878    4.63909711634152    4.95967284122736
S         6.92481379910819    5.30738261605310    4.75247244883563
C         7.10557320674417    5.68282718517519    6.40465771815854
S         8.52780106153075    5.03787308050873    7.08562010927967
N         6.23807376315822    6.40177288961123    7.09424079185834
C         5.03430280809686    6.95488403093425    6.49970863034410
H         5.10467448276216    6.83873395370634    5.41314071295203
H         4.98590129276681    8.02009904566563    6.74305718480540
C         3.81563774835035    6.24124155211893    7.00860978980567
H         3.80000302728627    5.17557239814548    6.82528956929650
C         2.82646979655975    6.83999502260812    7.64329866926647
H         2.83012470957571    7.90178650011805    7.82956604111973
H         1.96315179686983    6.29832425704832    7.98742136522015
C         6.50095792300693    6.76017928849714    8.47032274055507
H         7.03271675650127    5.93531694256462    8.95994251230541
H         5.53855991425603    6.88511478120120    8.97572400072170
C         7.31813325441940    8.01544219093105    8.60728833544681
H         7.46445762762393    8.32374128821629    9.63248372759106
C         7.84054690298976    8.70627834883166    7.61277684642916
H         7.71628227144084    8.42531527454854    6.57885705599424
H         8.41976398170309    9.59436349762509    7.79247191400667
P        10.92077486615515    3.64308457853741    5.42400752580213
C        12.23869969605410    3.47330928798485    4.14803132286584
H        12.75611484504537    4.42835005806781    4.03041600017114
H        12.95286980436895    2.73877465726657    4.53247426119679
C        11.68033474436046    3.01548390806025    2.80157858212991
H        12.50368673763995    2.64180609908741    2.18796410809698
H        10.98281357391189    2.18706459230290    2.95930039406801
C        10.99064534092904    4.14913568918021    2.04284449019931
H        10.74676867645746    3.82671798071423    1.02753137911427
H        11.66802734670509    5.00493113138329    1.97342407405551
P         9.42531019378055    4.75339563341243    2.82925684577083
C        11.81803209901207    3.93443743524880    6.96913579526224
C        12.95887089458344    4.73031923533628    7.01197646385577
H        13.35171576413305    5.17143340988500    6.10765667684303
C        13.59355601644222    4.95799973671747    8.21978856425428
H        14.48407600526480    5.56731400035990    8.24981145456349
C        13.08696842600291    4.41157586497996    9.38789289925507
H        13.58498039494506    4.59319994204494   10.32779227846365
C        11.93627497342582    3.63977959300837    9.35143550159074
H        11.53557697585628    3.22107948758249   10.26201505558813
C        11.29691482269119    3.40663993054230    8.14885818223483
H        10.39536926519859    2.81026994902400    8.11565345557121
C        10.29808637007668    1.93974981844642    5.55795297454245
C         8.96966313304021    1.71180098481847    5.20312993977712
H         8.33719266275437    2.55770460170814    4.88050506527885
C         8.44498143052828    0.43382759947786    5.25868372256396
H         7.41609194023449    0.25689837202237    4.98414795567069
C         9.24696110954198   -0.61867727406967    5.67192122468269
H         8.84055480439989   -1.61722767302918    5.71824576171234
C        10.56715087260380   -0.39429114303981    6.03272351097668
H        11.18368470582726   -1.21751846041858    6.35990778552545
C        11.09770334067863    0.88182934068358    5.97802661871312
H        12.12250124524463    1.06248221419988    6.27076669560075
C         8.11968416597717    4.23199868491155    1.68995312590390
C         7.06482580899362    5.08571731686785    1.38060570692484
H         7.05141906189113    6.09098245177260    1.77719289793769
C         6.04149592370654    4.64385239043733    0.56208132799786
H         5.22953983066051    5.31016524316895    0.31349037342344
C         6.05386340803787    3.34956114517043    0.06756147389926
H         5.25196459016040    3.00811137672428   -0.56862795056352
C         7.08908333842709    2.48875431351524    0.39756937656361
H         7.09161162541602    1.47637805660754    0.02297102434999
C         8.11702476726777    2.92300355800440    1.21314555896533
H         8.91688496521622    2.24730640236372    1.48471224466974
C         9.58984223226192    6.55539795422110    2.66899997369357
C         9.57831124949794    7.21887192584939    1.44692899366944
H         9.44444550771308    6.66002175662915    0.53152195139115
C         9.72734772228544    8.59426374793719    1.41836071209326
H         9.71287866115952    9.11498889258315    0.47309799833011
C         9.89233369506391    9.30522492042803    2.59738268089003
H        10.00287840362974   10.37820748755960    2.56583742481552
C         9.91761290917440    8.64529871521193    3.81658448588359
H        10.05314757718164    9.20164877533849    4.73202026483406
C         9.76807735918846    7.27170093454608    3.85169307322213
H         9.79892954994236    6.73292210910531    4.81533770984425

