131
CSD_code = OJIFOD | q = 1 | S = 0 | Stoichiometry = C54H72AuN4(1+) | MND = 2
Au       10.37290566230411    2.97149487356011    4.07292524835549
C         8.79874939560980    1.70703744956293    3.88075660181879
N         7.84567413802401    1.41014368598261    4.78261596215737
C         7.00844620902789    0.43960322134606    4.30155257272501
H         6.19457178997372    0.05421734525238    4.87918906275085
C         7.44773962467371    0.12785816221843    3.06090751373112
H         7.08967393854061   -0.58003110411539    2.34333005124954
N         8.53982421822469    0.91719486212220    2.82271583816165
C         7.67797912966014    1.99269276426158    6.07027834349538
C         6.86669352913551    3.12360729952795    6.19812119876527
C         6.64814872562753    3.62131402692503    7.47525464447363
H         6.00903214199989    4.47771786893297    7.61333727731387
C         7.24164068208438    3.03200444635365    8.57618620083177
H         7.06157736917576    3.43551328303408    9.56101849653765
C         8.05233697755513    1.92418402156141    8.42491655255706
H         8.50608589042111    1.47278465858964    9.29258221039962
C         8.26852009307031    1.37007507524546    7.17003703240821
C         6.20672403136529    3.75056014325398    4.99155432292365
H         6.75970473202289    3.45144400117565    4.09348658989267
C         4.76853402226586    3.23660998887188    4.86844594308545
H         4.74718328935481    2.15641565708297    4.74265599114442
H         4.28163954948375    3.69151959758509    4.00934172194422
H         4.20110751991837    3.48881833732829    5.76089911955941
C         6.21769221408278    5.27815171824083    5.04722359696721
H         7.21780960888766    5.64613621642130    5.26093565025731
H         5.53814129877303    5.64981099920498    5.80860344250377
H         5.89742604342075    5.68083260467358    4.08921396062812
C         9.10239211100304    0.12037620512492    7.01700682559515
H         9.08564480957917   -0.20066362173511    5.97027867738713
C         8.53332177469376   -1.02194485920327    7.86122041481910
H         7.48757074976082   -1.19536764967638    7.61682407204676
H         8.60417983532442   -0.79832486502720    8.92164432939156
H         9.08781957137577   -1.93723402433642    7.66901238564234
C        10.55610157295955    0.40830741903407    7.39079143699332
H        10.95521804811474    1.20564709922338    6.76564623783216
H        11.16074762494251   -0.48492416254558    7.25289922163531
H        10.63591541775018    0.71918556694489    8.42841803556005
C         9.25856771650407    0.89130468235519    1.59525463824302
C        10.33768577376023    0.01682133930329    1.46291965825961
C        10.97845619253265   -0.04017996383619    0.23171420181286
H        11.80177095017739   -0.72247790161828    0.08938616400411
C        10.56330611540702    0.75529548871985   -0.81972831584269
H        11.07207561953267    0.69572190956250   -1.76961558723448
C         9.49275270393109    1.61508894794439   -0.66574869230443
H         9.17214527830535    2.21781036854186   -1.49947437459478
C         8.81228825705414    1.69282306756436    0.54162850980877
C        10.78432032437513   -0.86894532432919    2.60206118821268
H        10.18032980474011   -0.64825232104718    3.48845653061753
C        10.57384918719356   -2.34182911137599    2.24279042663730
H        10.84541312381100   -2.97359056782093    3.08494802098237
H        11.18619529810305   -2.62492323594168    1.39122782125543
H         9.53209308785047   -2.53085763637041    1.99251198174340
C        12.24517570985187   -0.59854465735955    2.96455488807596
H        12.38077305618472    0.44934591839423    3.22647454405259
H        12.90465164197112   -0.83893096540918    2.13567038262071
H        12.53276924702021   -1.21042085248643    3.81592895923901
C         7.58534744506145    2.56230826905210    0.68527912119306
H         7.35849697450589    2.68668952568358    1.74983237160811
C         6.39163340641608    1.87268975664113    0.01628551742188
H         6.19360318957391    0.90425165445170    0.46998953140119
H         6.58806331384504    1.71998932457018   -1.04196574196854
H         5.50066684833667    2.48748322407208    0.11731820910083
C         7.79292990868675    3.95629781227218    0.09612030299054
H         8.71154545988099    4.39504461669042    0.47731727809504
H         6.95716672620846    4.59661203007954    0.36857257492588
H         7.84765476544865    3.92234639899476   -0.98820685534601
C        11.94394387576280    4.24237251279225    4.24871523873612
N        12.41310119839516    5.05609864613192    3.28527331113210
C        13.40781997293575    5.86061172158597    3.77056939133062
H        13.89571020820782    6.59322504704108    3.16252365695031
C        13.57030144312519    5.53216598880240    5.07266806000725
H        14.22938825816229    5.92007977238824    5.82081381584810
N        12.66881188316053    4.53791286883628    5.34284697165928
C        11.98286307975541    5.08381119707327    1.92928824438119
C        10.97694774061275    5.97630356197346    1.55843723939816
C        10.61386533724381    6.02376013436086    0.21823712604278
H         9.84977325269498    6.71351675433196   -0.10400364846024
C        11.22936688582421    5.20615743027048   -0.71022297315368
H        10.93692980234590    5.25903091905598   -1.74765402253983
C        12.22634674077833    4.33164010770563   -0.32120437334699
H        12.70565642342725    3.71219289944702   -1.06086952495462
C        12.62884669761945    4.25802909789179    1.00493060381483
C        10.31117705099298    6.88412090255921    2.56585006487903
H        10.73394195376930    6.69363569478354    3.55788848793084
C        10.57234992061181    8.35141772678549    2.21789910855482
H        11.64084774004280    8.54774180392426    2.15934992308776
H        10.14520806490328    8.99698860944444    2.98141530562193
H        10.12499140184203    8.61045612318981    1.26241941715108
C         8.81028604911337    6.60002376992781    2.64406233315515
H         8.63672455682975    5.55812372145048    2.90826695245065
H         8.32509848227740    6.80397906535368    1.69381037838924
H         8.35389125012226    7.23192881981954    3.40200525775205
C        13.77700362594999    3.37072922488941    1.42644600384706
H        13.69061157644317    3.16879895533527    2.50014041280470
C        13.77587830508975    2.02468686840625    0.70508520838553
H        12.78905094106281    1.57158081088100    0.74844868679487
H        14.49080789877384    1.35632457935576    1.17931576471564
H        14.06582389904269    2.13552101198679   -0.33593520569730
C        15.10191275274305    4.09925794361207    1.17461177778053
H        15.16062271335130    5.02178763619897    1.74697822694469
H        15.20097052979112    4.34391063071114    0.11983874340571
H        15.93645607660616    3.46445467909959    1.46217203511733
C        12.55916079617748    3.93391490439898    6.62694294051016
C        13.32959702285705    2.80238484339685    6.90892209148689
C        13.26675500546930    2.28111289617975    8.19374153361828
H        13.86459928082680    1.42287318640208    8.45245751957504
C        12.44577512178305    2.85007363502457    9.14966370550494
H        12.40925076608020    2.42884868536339   10.14284644028109
C        11.68384482986275    3.96107041446030    8.84571136677105
H        11.05211902899007    4.39785634075616    9.60247233600835
C        11.74169384851242    4.53653839334920    7.58318760572334
C        14.24430368130170    2.20211109134032    5.86630440845865
H        13.89804621233056    2.51311943785999    4.87388399641175
C        15.66783207777488    2.73110072752807    6.06985571018562
H        15.70177876203488    3.81352389811694    5.96926036264610
H        16.33707184099309    2.29690607507288    5.33114185811467
H        16.02917752681390    2.46758023449915    7.06081523247076
C        14.24080914264594    0.67392440813155    5.89434055288171
H        14.76751770741163    0.29142231938735    5.02323523966773
H        13.22272203588298    0.29387565078639    5.87870908544063
H        14.74242579082290    0.29437214307086    6.77973843806641
C        10.95621349265091    5.78915529968524    7.27596236179093
H        11.18044024253919    6.11721063960241    6.25567275476925
C        11.34953539028227    6.92285205270923    8.22551820546922
H        12.42210899706627    7.10070237218964    8.18736002310701
H        11.07876149774444    6.68623631515198    9.25038459663253
H        10.83853686559073    7.83950069357105    7.94127759784462
C         9.45669684515573    5.50428832220386    7.35114908350315
H         9.18920248159013    4.71064392447910    6.65541659526959
H         8.89354735738228    6.39972487733994    7.09917896219598
H         9.17004829556172    5.18985887123602    8.35040135710866

