58
CSD_code = OJIHOF | q = 0 | S = 0 | Stoichiometry = C16H36ClN2OOsP | MND = 6
Os        8.89615210808083   10.40118948354456    8.65615263870585
P         9.62518085685079    8.25469016182531    7.99761056613166
Cl        9.35925366123079   10.01828802821761   11.04548846877472
N        10.95658038445180   11.29537350137490    8.68716207945578
H        10.92759226986889   11.98271115568709    9.44040407020484
H        11.69042304960217   10.64330354182143    8.95316367356544
N         8.29628492528603   12.40672864438086    9.50069340969661
H         8.48415930229319   12.20114789172300   10.48916166099155
H         8.94845675276587   13.13553410048489    9.20406144319032
O         5.97098610903957    9.73264249983928    8.45336924052898
C        11.27972961755938   11.94958943838214    7.40450887840015
H        11.73585405371732   12.93774947496386    7.56214063137815
H        12.01843734681717   11.34139755380193    6.86539101506870
C        10.03366561879701   12.06894588334029    6.56215090655356
H        10.13068889637045   12.72438779195369    5.70038780599687
C         8.94229682376102   11.35987900472793    6.83638246132143
H         8.10532155572959   11.49003170178265    6.14851322691355
C         6.93981512740836   12.94600687130452    9.37821345235585
H         6.23683203648698   12.20115169324790    9.75737615567661
H         6.72838217673892   13.10353789179321    8.31695170638230
C         6.76335665236688   14.25820722760028   10.14628744800193
H         6.99045071910858   14.09167686352093   11.20276375382799
H         7.46897693367323   15.00242855326364    9.76424225480513
C         5.34367412003443   14.79282777865341   10.01194749501004
H         5.10448321818524   14.97677808868730    8.96717572273151
H         5.23216933516840   15.72456026328933   10.56100544852085
H         4.62975966151564   14.07313932353058   10.40458758565607
C         7.11407708571913    9.92343891512157    8.53362295568401
C         9.24276692376193    7.74702490369518    6.23838104361235
H         9.51756142129396    6.69622414628229    6.10999171292983
C        10.02043088553032    8.60385558573516    5.24526618975523
H         9.69352439853068    8.38094144625122    4.23088986268032
H        11.09109489275698    8.42445416685435    5.29968249409410
H         9.82869339327890    9.65552255163170    5.44769953614979
C         7.74701844749692    7.91090907187346    5.99467541059319
H         7.47173801758166    8.95491321107751    6.12893474466796
H         7.16232460043806    7.31472528658182    6.68991410296879
H         7.49325780608760    7.60472336914637    4.98099279043556
C        11.49373555389830    8.03510499109674    8.08999835155432
H        11.86529354046166    8.88863385255655    7.50748039718785
C        12.08454380682382    6.76648935176016    7.47772419318449
H        13.17175252698925    6.85002493206577    7.47390999082488
H        11.75820642827128    6.60802334412130    6.45406015856500
H        11.82671236871743    5.89234828859161    8.06946301337637
C        11.97364524059281    8.16762855025888    9.53929230960306
H        11.97703353720384    7.19590021202513   10.02925101465651
H        11.32441568917008    8.81946091605646   10.12337568566640
H        12.99331405659514    8.55197904643765    9.57815613410901
C         9.02049137850716    6.80659538356879    9.04064090032690
H         9.77430041369842    6.73354897336199    9.83287816082313
C         8.92529885860671    5.45820951663848    8.32777712513625
H         8.71926931419418    4.68519382193421    9.06753679288489
H         9.84229493768221    5.18893129065514    7.81287984958540
H         8.10915882087429    5.45384439790887    7.61017163226681
C         7.68773282269848    7.11718076310645    9.71679594776380
H         6.88545262568353    7.21270870308717    8.98994945818149
H         7.75455563313313    8.04439017339530   10.27986263332594
H         7.43034126088429    6.31636642433070   10.40875220751118

