68
CSD_code = OJIJAT | q = 1 | S = 0 | Stoichiometry = C21H41NO2OsPSi(1+) | MND = 7
Os       12.00984779138887    0.62590073405655    2.74599863774445
P        10.67069917298780   -0.78927775770433    1.09463965142779
Si       15.02099927478018    0.98827940651291    4.67518621824298
N        10.05028771623259    1.65714872570973    3.43120621157741
H        10.28357568311911    2.60695027850582    3.73528971854408
H         9.48221940220775    1.77511995764336    2.58982627688485
O        14.39769486872330   -0.80052870910126    1.57798281877214
O        12.57887828275432    3.11768665094166    1.11231950649952
C        12.06231915412231   -0.80176130910139    4.54156738558036
H        11.29445861845328   -1.43994258882382    4.96701604507172
H        12.98382191645622   -1.33623362198653    4.33445196074548
C        12.14281371425660    0.49878379712722    5.06159451837082
C        13.12390880446275    1.41252113357011    4.57037783034676
C        12.92456736621710    2.86297791644812    4.97376756113022
H        11.88861679284921    3.19380105482530    4.90195151361213
H        13.53653521560934    3.51504144619419    4.35568882408417
H        13.23089223065958    3.00594355085138    6.00956165160412
C        15.46359772117768   -0.86478448372842    4.78564473472873
H        16.52681658510934   -0.94224025047885    4.99266394397649
H        15.28338091673855   -1.41894810249198    3.87143925898994
H        14.94864142873483   -1.36567766689205    5.60021096928072
C        15.61903957880375    1.75068513988798    6.31839139047918
H        15.02016148428955    1.43049453939483    7.16607251250821
H        15.61366640954996    2.83504447512803    6.29507926468811
H        16.64061451901423    1.44154724873930    6.51376120079102
C        15.86881889180856    1.84581382097536    3.19780129731862
H        16.82343609903166    1.37781030077576    2.98297263498527
H        16.06827675635425    2.89039849523163    3.41464760561578
H        15.27104854793010    1.80760790323391    2.29070278187070
C         9.18107795941586    1.07289048894692    4.47780034774877
H         8.22536892066097    1.61006864897992    4.52088407230862
H         8.96411568967109    0.03284982030968    4.20844944847297
C         9.83107742645446    1.13572022126000    5.83035622974614
H         9.18209026935448    1.39707375330161    6.65192628927811
C        11.12268432635887    0.92995576813368    6.04008471369386
H        11.52918746087867    1.04757493651262    7.03709215720157
C        13.52605727795181   -0.22841505975692    2.05538871409087
C        12.33137065516612    2.14960663271017    1.67445518750769
C         9.00173299617039   -0.04587329416393    0.64653041138868
H         8.53998293017869    0.13291275107921    1.62820467428065
C         9.19437021342346    1.29990572785228   -0.05454450511499
H         9.38437813515899    1.14877066498194   -1.11352293393185
H        10.03489807008156    1.85828696482627    0.36260064735422
H         8.29320474218848    1.90557779556090    0.02946814465847
C         8.02663058879640   -0.91660537218709   -0.14316744287669
H         7.08469913565709   -0.37759750910653   -0.23724179094318
H         7.81637496459199   -1.85921008853549    0.35342266254695
H         8.38722218591482   -1.12351270969468   -1.14401068802285
C        10.22162474259729   -2.53367517281843    1.59365633747690
H         9.70695666690547   -2.98517349244371    0.73920288327046
C         9.27391852923004   -2.54382627556380    2.79011190851104
H         8.99918902716012   -3.56924624862652    3.02991952014004
H         8.35631014828814   -1.99486871264163    2.59026434396016
H         9.75773143872806   -2.11806047659725    3.66510733786214
C        11.47527178775866   -3.34851783210802    1.90048957306612
H        12.11538301883605   -2.82353852676093    2.60767172207775
H        12.04875567841188   -3.55840124399879    1.00186319158378
H        11.19325702061510   -4.30239323786260    2.34136584659022
C        11.65795465827990   -1.10397617704999   -0.47292108631297
H        12.47277052449226   -1.73863308634215   -0.10108551592521
C        10.93964515881123   -1.85560716185223   -1.59165176002412
H        10.26299132007794   -1.19879312453369   -2.13100030540804
H        10.38885191081891   -2.72055480195290   -1.23363635546276
H        11.68119745218380   -2.21108955504410   -2.30456786216357
C        12.29997366953114    0.15979097043259   -1.04223016784632
H        13.01586535616238   -0.12196676618198   -1.81151498186709
H        12.83570246083303    0.71573048311730   -0.27379288776121
H        11.56469053839150    0.81445821236734   -1.49954200660429

