42
CSD_code = OJIKOI | q = 0 | S = 0 | Stoichiometry = C17H18ClI2N3Pd | MND = 4
Pd        3.27499710645375    1.70051767177111    0.07789224895631
C         2.42231700283003    4.14106122854301   -1.24448634031050
H         3.01405410227727    3.70811705700351   -2.05012727263476
C         1.79226713737604    5.36880234659371   -1.39611595014405
C         1.03981053737267    5.87977719328868   -0.34553261033327
H         0.53951470704029    6.82985339027193   -0.44349411295459
C         0.95499418203916    5.13923214358096    0.82232516497053
H         0.38454013264683    5.49972448971504    1.66332841404258
C         1.61703008081581    3.92695755181115    0.89895590932433
H         1.59109583718700    3.31860649568287    1.80297795580068
C         4.23159885126086    0.01917972465597    0.29852143009145
C         5.54271672664952   -1.72663004924591   -0.06279672937869
H         6.18278857426413   -2.38451222385917   -0.61223063265706
C         5.11293367336577   -1.80017587797199    1.21736596904995
H         5.29638271843062   -2.53671920262877    1.97171098687537
C         5.26385437169455   -0.04278334592855   -1.93037689258399
H         4.65185418113470    0.88368765931317   -2.00409856050560
C         6.73852617466639    0.33659393688029   -2.03658564618407
H         7.00902535660079    1.02615626128763   -1.23860747779214
H         6.92591416666120    0.82205050531795   -2.99021585921240
H         7.37105075010337   -0.54567538749425   -1.96695812762428
C         4.83126382663634   -1.02252479820466   -3.01470900843826
H         5.42391932896435   -1.93347902931880   -2.97149016134882
H         4.96540752916022   -0.56955751311139   -3.99287484467965
H         3.78089141926425   -1.27940605576557   -2.89603491238002
C         3.75715856191557   -0.27410251785311    2.65637477336209
C         4.48440822291579   -0.43254653876357    3.82930288510597
H         5.44417116789309   -0.92570754024691    3.80485398868608
C         3.99224023889330    0.07827431777534    5.01663868981424
H         4.56538032031522   -0.03831980940897    5.92348647632027
C         2.78338225818321    0.75218435206519    5.03989732423841
H         2.40968923549245    1.16112156133885    5.96597860722895
C         2.05204657343583    0.89963374603651    3.87298275909077
H         1.09768649752468    1.40610601767138    3.89460092167327
C         2.52989773889510    0.39065672783653    2.67635521927773
H         1.90921352681093    0.44644173196118    1.77676737889832
Cl        1.94678900634098    6.23793018506339   -2.87311110960993
I         1.42260665720126    0.51848646989757   -1.35232226132040
I         5.28039111039956    2.89501021883930    1.23812989992828
N         2.32650732459297    3.44763016521089   -0.11801656564923
N         4.99673187327743   -0.59315281572518   -0.60992665144906
N         4.29785121099685   -0.71350044388313    1.42966472445755

