32
CSD_code = OJILEZ | q = 0 | S = 0 | Stoichiometry = C16H12FeO2Se | MND = 8
Fe        3.23902960754451    4.16865380939507    4.51077882544986
Se        3.69517833206183    1.94798325530199    4.77203297672590
C         2.57913526557057    0.97745469383047    3.73358261193871
C         1.83258209754467    0.29733596138628    3.05958049582288
C         0.93835480854548   -0.44814208936906    2.26557434777480
C        -0.25554358883857    0.12620888026352    1.82341032809344
H        -0.48331563812367    1.14659346471440    2.09489359094413
C        -1.12923208435935   -0.60563458151314    1.04545985446277
H        -2.04986461387889   -0.15088930112946    0.70732368120162
C        -0.84523441257011   -1.91976019056508    0.68981957701446
C         0.34509471624430   -2.48606303662672    1.13436417305208
H         0.57990981554326   -3.50636021678651    0.86506521969046
C         1.23067310929894   -1.76659461723068    1.90992593490382
H         2.15343086203423   -2.21279603393058    2.24977101775640
C        -1.80980839580807   -2.71811958490414   -0.13274579643798
H        -2.47403777820825   -3.28657673134853    0.51976710461589
H        -1.28338244488040   -3.42431748509415   -0.77118385436422
H        -2.42270163310490   -2.06860818954462   -0.75346158922983
C         5.18228593271719    4.80235982630396    5.69088504199144
H         6.10596121778144    4.25084559236196    5.76208663924119
C         4.11385097822818    4.74951516148917    6.63824656523057
H         4.10264337239027    4.14806715041759    7.53253678885040
C         3.16174708726670    5.71283370913300    6.27381594597415
H         2.28162488694962    5.98113493540379    6.83379971324844
C         3.60590185114480    6.33580116979965    5.07484114227665
H         3.15369615678372    7.19950686793193    4.61443737665369
C         4.88302052182871    5.80228286407067    4.75157440868438
H         5.53265101595705    6.15286130823279    3.96706965150146
C         1.51291360987619    3.93285077583499    4.34787024116046
O         0.39577557235241    3.76840803810156    4.16963473935502
C         3.24346049849443    4.11611671694517    2.76213093729405
O         3.17889927364782    4.07144787711081    1.62191230912946

