31
CSD_code = OJIMAW | q = 0 | S = 0 | Stoichiometry = C10H15ClNiO2P2 | MND = 4
Ni        7.36309184314409    7.83195391165469    1.73257251864790
Cl        6.48509150379018    9.71037204223181    1.49981969090621
P         9.19123194053701    8.52004763449612    2.58339142603183
P         5.76230058477853    6.70493121718774    0.89195207197064
O        10.07824136806602    7.17020209415044    2.89187395578859
O         6.22964661124413    5.13063768674835    0.97629348288393
C         8.15826792842403    6.13804046645921    1.93858117896077
C         9.42966544468844    6.01179709825116    2.49946402053464
C        10.02085825058868    4.76835501274255    2.65707584923513
H        11.00417247008841    4.69401866688179    3.09363417422212
C         9.32933487794870    3.63946302696233    2.24604492653126
H         9.78423903031048    2.66830591265034    2.36585313808215
C         8.06593100600240    3.73226336795459    1.68328781447949
H         7.53016651354320    2.85284008343320    1.36294970777378
C         7.48853369093924    4.98306414893270    1.53304674367585
C         9.28275511514090    9.37375049217855    4.19557374656157
H        10.32171442949384    9.41522711577833    4.51772179866267
H         8.69197336145940    8.83297285163188    4.93185331458275
H         8.87774600313013   10.37597335297062    4.08274830351198
C        10.36971664673436    9.50170356289049    1.58808254425026
H        11.32388311645825    9.55123712300459    2.10959365249094
H         9.96125921545270   10.49859621910942    1.44447766528452
H        10.50708035253167    9.03116969712171    0.61655272937939
C         4.10719874701482    6.62115575878748    1.66071989479430
H         3.53806824117540    5.81910434689039    1.19424656564134
H         3.60786099982335    7.57595132470891    1.51876199233347
H         4.20695789380733    6.42785667211329    2.72667810113599
C         5.32969224449919    6.85263533526934   -0.87792571272395
H         4.66692862453662    6.03407269077604   -1.15255101143558
H         6.23431649398853    6.80946816576604   -1.48095140199046
H         4.84127545065941    7.80993292026600   -1.03972288220291

