103
CSD_code = OJIMEZ | q = 0 | S = 0 | Stoichiometry = C49H47ClO2P3Rh | MND = 4
Rh        4.06906457863964    6.10893338044084    2.48896969995404
Cl        1.98731946060715    7.02383324747965    2.80183672842841
P         4.69452402885635    8.23994417506021    2.84217396594006
P         6.11973227924970    5.35903356977207    2.03373504152861
P         2.90296258378722    4.19245744275790    2.74404963070066
O         7.38695906737763    9.87071954087853    1.13606935709187
O         7.36790308413601    8.29252866046768   -0.50959315907713
C         4.10577720680066    8.76676750293560    4.48810104944912
C         2.96834629918974    9.55339833061252    4.63551511189919
C         2.47635294907389    9.83649261980144    5.89667217213810
C         3.10389125235749    9.32958425037229    7.02224526724041
C         4.22591193383888    8.52969439264788    6.88224816088489
C         4.72097259751656    8.24430155772845    5.62315799436775
C         4.07435306923189    9.55469836612591    1.74925002435350
C         3.36434857113645    9.18205812352127    0.61365950672919
C         2.88559431277979   10.14471148377199   -0.25647565787421
C         3.11926059864153   11.48528210422481    0.00317475754019
C         3.82697566263389   11.86082452203953    1.13452887007046
C         4.30369051581658   10.90141595960705    2.00801502077059
C         6.48435553115837    8.70488713604173    3.03413909498987
C         7.31648402192837    8.60662166937730    1.76492208776591
C         6.76892956531042    7.72384914254597    0.63795955132454
C         7.08383149374006    6.24496722397747    0.71247732971990
C         7.62130653370861    9.66598583245780   -0.24774824677401
C         6.66524031859101   10.55661553545653   -1.04251575898091
C         9.08122172439798    9.96467137956372   -0.60329812234066
C         6.42699650199754    3.68719326541911    1.35333907899147
C         7.42204031764487    2.82064128247254    1.78170465035686
C         7.58619505151048    1.59653026918597    1.15619245033205
C         6.76131099812477    1.22995542751060    0.10748488741500
C         5.75857029568496    2.08713920524245   -0.31719289324091
C         5.59279427432370    3.30664496934313    0.30692349350389
C         7.21205471948043    5.36970403011675    3.50101527616362
C         6.54048653092772    5.22952329522024    4.71379314487711
C         7.23084527778733    5.21098606794731    5.91102184606808
C         8.61015743485667    5.34436899501603    5.90953662603583
C         9.28791155124835    5.48511924372324    4.70957354875975
C         8.59722040811887    5.49262808856565    3.50956598920142
C         2.37741478521524    4.00398175846564    4.48444476056227
C         1.77951840437200    2.83477945221567    4.94893716444018
C         1.40780370929282    2.72678028989564    6.27623160128728
C         1.64083747697257    3.77336648087156    7.15489270466460
C         2.25712439715752    4.92837522854841    6.70461830200440
C         2.62599965087317    5.04133852851794    5.37645103913912
C         1.36673945905955    4.18362097423656    1.76304315247938
C         0.12357342169534    3.76897900889829    2.21805693228151
C        -0.96844868532027    3.81126575587106    1.36750037506502
C        -0.82781417999792    4.26369796382244    0.06682978420560
C         0.40918183251435    4.69481123335217   -0.38682536177584
C         1.49826327175400    4.65916079983597    0.46062263677276
C         3.48976273995560    2.47631460955358    2.48758824989176
C         2.94337251426324    1.60429067368554    1.55551359170618
C         3.43545466853453    0.31582341773237    1.43851514771035
C         4.47685616199991   -0.10928618341056    2.24422127658493
C         5.03543464388429    0.76082910247953    3.16721607996351
C         4.54698251524178    2.04614713081516    3.28406257971435
H         8.34044086795944    8.27001205050809    2.01535403917900
H         2.45884928672133    9.92797925050570    3.75992793204033
H         1.59185874576917   10.44795566303785    6.00058051744363
H         2.71364217678119    9.54853158206881    8.00567870133328
H         4.71298953407208    8.12018876308466    7.75622226956773
H         5.58494576512440    7.60129110115699    5.52101381765047
H         3.17618855331961    8.12819585402141    0.43144354082047
H         2.33025985876477    9.85152122794782   -1.13559225543381
H         2.74814065277671   12.23961984315234   -0.67537119560529
H         4.00517126657762   12.90730545152181    1.33625614195453
H         4.84574117226417   11.19756431182295    2.89514866450021
H         6.56214188762971    9.72905936726445    3.40807264595889
H         6.90355076776502    8.03386483366199    3.78807423517758
H         5.67328037455089    7.85750235131193    0.58138307843362
H         8.15799769329642    6.08141648434319    0.82364785715347
H         6.77855037833498    5.79978748215817   -0.24044366437715
H         6.85116118464166   10.43322651688359   -2.10488672522447
H         6.81842779064913   11.59238391567497   -0.75638656183500
H         5.63860109317865   10.27846551311531   -0.82133292533871
H         9.29089485180179   11.01510786158042   -0.42730751088591
H         9.74074314646884    9.35988482665152    0.01390655943804
H         9.25334427156551    9.72202347648244   -1.64718200640136
H         8.06494273367504    3.09509407358911    2.60560641687332
H         8.36326916435909    0.92460705001603    1.49119312751015
H         6.89459773497248    0.27360690082864   -0.37615426182498
H         5.10726179213373    1.79930524193381   -1.12937161425712
H         4.80367006378144    3.98392570369005   -0.00161328743484
H         5.45589781786608    5.14602877637703    4.69596192583462
H         6.69548245712169    5.09916079188722    6.84286011652108
H         9.15716678845488    5.33938222737763    6.84073142959779
H        10.36376030666938    5.58690718654743    4.70776182102962
H         9.14806678582589    5.58996793677608    2.58509787899461
H         1.61714468609293    2.00550280992523    4.27323306562298
H         0.93613086337127    1.82051786334505    6.62897627515827
H         1.34635267846297    3.68305049021528    8.19051289413588
H         2.44987418520440    5.74571056319548    7.38466648281522
H         3.09964383115659    5.95163818036031    5.02051919467329
H         0.00062150836325    3.43364861491551    3.23744753368493
H        -1.93743772348510    3.49446183912822    1.72620287204162
H        -1.68507520090522    4.29526010738731   -0.58995669605386
H         0.51672534775496    5.06668570437870   -1.39582622939590
H         2.46832814651209    5.02578721787999    0.13386006504317
H         2.12782275447069    1.92989093756131    0.92487198991944
H         3.00043852167480   -0.36024536946645    0.71632756041630
H         4.85557671931453   -1.11672325314890    2.15307968253705
H         5.85223724126192    0.43381422428526    3.79426791362762
H         4.97983008583570    2.73343893797083    4.00068909407053

