99
CSD_code = OJITEG | q = 0 | S = 0 | Stoichiometry = C53H37CdN5O3 | MND = 6
Cd        9.68136038402161    2.50326082881326    3.84851920229439
O         8.04399105998856    6.78009991966269    5.42415608975896
O        10.61016252470668    1.78958583906781    5.67535578949873
O        10.07264500708059    0.37027926860850    4.09683862101987
N        11.33230805220830    3.86250195739301    3.00352688605569
N         9.00776385360047    2.54483044667545    1.84611079986558
N         7.59671828587472    3.02285865685840    4.35727442922990
N         9.84045222302291    4.70064988747613    5.46466756970504
N         9.30210051622926    5.25241600410801    4.31938340646208
C        11.79487958662641    3.62858484747840    1.74285270697381
C        11.15551823266195    2.88705147177634    0.73838451606745
C         9.86328632164099    2.35196424545306    0.81366857642673
C         9.22603716638968    1.54305073537579   -0.19632681375664
C         7.97841232075022    1.26892295560477    0.25344620737685
C         7.84971559107920    1.90853239137481    1.53974100281405
C         6.69993753967203    1.91680795852978    2.33855729582984
C         6.58784579995617    2.50472817899792    3.60876123117163
C         5.33068525636866    2.69640398090471    4.28810856366006
C         5.60876308853297    3.31567426133192    5.45857042483091
C         7.03631347943761    3.50313218796921    5.49909059801254
C         7.72404355719172    4.06461524427621    6.58441633067731
C         9.07572750386457    4.43150894299984    6.57722406764066
C         9.93998108003023    4.47953076595460    7.69746682456007
C        11.20372705144165    4.74943817392478    7.25165907370735
C        11.15534183404416    4.88703797585517    5.84332411677518
C        12.24705061467298    5.02635391256293    4.97813614134859
C        12.27411567394978    4.62158591600565    3.63415626317272
C        13.34771677731184    4.92015107883451    2.72363693235222
C        13.05223842899696    4.30499144998444    1.55426030605713
C        11.90770876139336    2.65786508059062   -0.51284128085629
C        13.11256926164823    1.96076203912356   -0.49242734736669
C        13.81087823480141    1.73457149301832   -1.66433645425502
C        13.31999297068919    2.20781975353134   -2.86992950263147
C        12.12471057543936    2.90683237007572   -2.89858673990004
C        11.42033932655951    3.12796139768289   -1.72921281138689
C         5.48897997645539    1.27352776217109    1.78929355951749
C         4.92553230807343    1.71469487215169    0.59518574582144
C         3.79360631638933    1.10355186656383    0.08729897066003
C         3.21447752590474    0.04067418241330    0.76037272090970
C         3.76927607223027   -0.40516413280310    1.94870901135380
C         4.89601203140203    0.20913312345785    2.46330849567833
C         7.01413825430408    4.22445026340745    7.86258910277798
C         6.29315933964849    3.17385712375507    8.42681063723890
C         5.64094433746840    3.34423693076452    9.63379244729891
C         5.69515016559222    4.56375310066905   10.28915176928453
C         6.40950006395473    5.61332327201073    9.73391679107656
C         7.07054898533249    5.44626536952167    8.53163278829966
C        13.48737370438749    5.54415122338901    5.58035826555680
C        13.45894588076274    6.71577657184452    6.33546548326973
C        14.61566497083874    7.20884227176655    6.90933329570244
C        15.81542994293095    6.53544951405051    6.74749032714875
C        15.85130739236068    5.36282739614060    6.01070370970020
C        14.69773445637991    4.86974915604193    5.43028485757747
C         8.40715200551480    6.28206041623566    4.37797145757884
C         7.92290423888090    6.71785376416306    3.04113975400150
C         7.52922274126646    8.04464426020393    2.88862821824313
C         7.05838424170867    8.49743953516820    1.67050200732287
C         6.96292038849203    7.62427445414209    0.59916914097088
C         7.33193331919058    6.29738000484185    0.75299785486907
C         7.81257464667105    5.83839715950034    1.96641040167357
C        10.54628561843017    0.62008967481337    5.22837417529030
C        11.07106528236997   -0.52132344535073    6.08168299823792
H         9.73587897872592    4.95427787536361    3.44675294676050
H         9.68242537850934    1.21547760746651   -1.11041347646250
H         7.22391182148205    0.67361570810564   -0.22338845937805
H         4.36919225109699    2.42133933029039    3.89983030759763
H         4.92084471369353    3.65113600069886    6.20974064873012
H         9.64066382441761    4.25796018626305    8.70318039237725
H        12.10414077575370    4.77690699116638    7.83384717538575
H        14.19189386948194    5.54355023332864    2.94530259401689
H        13.61325303878470    4.32507344389826    0.64024924115541
H        13.48849865527843    1.58508802579773    0.44818614148006
H        14.74123424015286    1.18632200082083   -1.63747715101795
H        13.86715263312675    2.03241674654873   -3.78430451513308
H        11.73972022424458    3.28106392865370   -3.83605213759507
H        10.49202438923347    3.68064789820725   -1.74859125375769
H         5.37203498993484    2.55096108416038    0.07675684265911
H         3.36115102118883    1.45790353003678   -0.83711789185062
H         2.33296032201260   -0.43819792722039    0.36053250258016
H         3.32196608946246   -1.23494309042262    2.47615037402053
H         5.33667106903434   -0.14079139792178    3.38544269236538
H         6.26728380182978    2.21844117411063    7.92329509669549
H         5.08970059914214    2.52225957043447   10.06698315006817
H         5.18159187920069    4.69477689193084   11.23027599521962
H         6.44919174545594    6.56631367864186   10.24077126454548
H         7.60886475414546    6.26420106673739    8.07778168585806
H        12.52459940105570    7.24451979410041    6.45543083103516
H        14.58205267625477    8.12207401688417    7.48509925770396
H        16.71836875788185    6.92038884411104    7.19761243971587
H        16.78235075672730    4.82814101367046    5.89191411873821
H        14.72076669551147    3.94374564118382    4.87510425697423
H         7.60118565454644    8.70691542570239    3.73820421892206
H         6.76151731974655    9.52934495720727    1.55636542871026
H         6.59249644476982    7.97556816709016   -0.35262276981545
H         7.24299421197017    5.61237266468699   -0.07734506221849
H         8.06848698342680    4.79444645156911    2.07877477724211
H        12.15809729046738   -0.51675511159163    6.03584891933415
H        10.77065197278515   -0.37210648750467    7.11506573928332
H        10.69911862064410   -1.46963324316299    5.70580666779829

