27
CSD_code = OJIWOU | q = 1 | S = 0 | Stoichiometry = C11H9ClN5Pt(1+) | MND = 4
C         5.58434327345908   14.34534500580369   10.68372999825969
H         5.69595825651834   15.24670881789459   10.11576945356382
C         5.48322820935501   14.16260374732690   12.04717818559046
H         5.49942265518834   14.91813114611950   12.80412185981800
C         5.35545647684352   12.77816292876851   12.22554865673118
C         5.20964177051679   11.89860613090642   13.37911498903975
C         5.15119351299487   12.22029401272808   14.73061150008994
H         5.21559972223854   13.24532102432899   15.05534153700746
C         5.00766849171641   11.18499493606959   15.64778105740665
H         4.96009499243903   11.41188470085554   16.70114168751895
C         4.92459694019390    9.86183237167641   15.22836045749580
H         4.81339666396476    9.05979336713029   15.93877590308833
C         4.98857704177786    9.59855081078667   13.86450811056847
C         4.92665246049673    8.32016734809275   13.16632630500758
C         4.79238203838956    6.98238921946283   13.56264196934204
H         4.69976700231322    6.60430201974204   14.55890509961269
C         4.80507640544410    6.25363360692244   12.39155851245070
H         4.72814435372453    5.19645489972384   12.23696121251036
Cl        5.30701078986918    9.74218750752322    8.94373209027170
Pt        5.21057215389437   10.21001887030463   11.11977404710179
N         5.51895591708854   13.13602245512560   10.10444860130322
H         5.56135643946365   12.90659340025207    9.11796234729842
N         5.38144351149508   12.18099733059088   11.01247243667212
N         5.12685810840483   10.61534192061972   13.00312567505916
N         5.01393423334906    8.36568489413871   11.81752942694857
N         4.93912108914470    7.11929691673131   11.37426606122652
H         4.98424748971589    6.92238061037501   10.38091281901693

