53
CSD_code = OJIXOU | q = 0 | S = 0 | Stoichiometry = C21H24N2OPdS4 | MND = 4
Pd        1.76616635766053    6.51878127943952    5.18438851206039
S         1.27666463755647    5.36883942745547    7.08209664273145
S         0.87992241308628    8.39248591712839    6.11576841224770
S        -0.03812092206708    6.16060318613540    9.68985401711016
S        -0.40204599445100    8.95080941794338    8.79928225383813
O        -1.15783613657701    8.04058199469228   11.14688242957418
N         2.59910796275182    4.92947381556842    4.21081298822720
N         2.26626672570012    7.40574855784500    3.41519152977466
C         0.53529823584399    6.56846419331431    8.08055206323800
C         0.36862241420683    7.84515134762955    7.67292063449109
C        -0.64288426555523    7.77439108306238   10.10243596823049
C         2.73728700622443    3.69029722621316    4.67898160871207
C         3.32072548548384    2.67135657517971    3.95456088197334
C         3.80216276719533    2.91890402343389    2.66589878211087
C         3.65248797955114    4.21381692006210    2.18991905747517
C         3.05152641829866    5.20629274354191    2.96351586602678
C         2.85967338788832    6.58341309528703    2.51892267417571
C         3.24516799735304    7.05379641163434    1.26065154785884
C         3.03177780828767    8.37131211658039    0.89321681194404
C         2.41592791371865    9.19165241153061    1.84787642089882
C         2.05681496248918    8.67800460463302    3.07352059204242
C         4.46294734630664    1.86131264540296    1.80303254810774
C         3.67314089452652    1.71976294917366    0.49385482237129
C         5.90287407582762    2.30122151164907    1.50125314593605
C         4.50694416402323    0.49516038012579    2.49096075850268
C         3.42127512155907    8.93596821286104   -0.45828364785922
C         4.39416778520823   10.10431782131216   -0.24507280513454
C         4.10003360333201    7.89832637631265   -1.35586914953840
C         2.15206345395385    9.43487385889655   -1.16375478624764
H         2.36212111056234    3.50887099803268    5.68018486764980
H         3.39301743578072    1.69719714841639    4.40510544962688
H         4.00643980331439    4.46379275058272    1.20398787684193
H         3.71277032224122    6.37050924254057    0.57445559037885
H         2.21318018822316   10.22927437808700    1.64183300158015
H         1.58016583534552    9.30501061039997    3.81883304855630
H         3.67956942454421    2.64197453804685   -0.08064384502422
H         2.63936987459534    1.45362221928271    0.70312726224379
H         4.11226147174135    0.93677280334822   -0.11941114950687
H         5.92806950945812    3.24252708653554    0.95886801624336
H         6.40080705762015    1.54731792021194    0.89651726587557
H         6.46166248922945    2.42460797494107    2.42638163281576
H         5.08450222455297    0.53723028326381    3.41120917436393
H         4.98311193557889   -0.22598287730061    1.83073894938869
H         3.50488032679233    0.13569408318704    2.71238064463205
H         5.28282997207445    9.76567928813250    0.28336476858500
H         3.93740542175203   10.90345706721398    0.33130705158970
H         4.69922605514364   10.51095658284294   -1.20615737787523
H         5.01694947647632    7.52730565306596   -0.90307342436682
H         4.36042995134523    8.35974059699671   -2.30547304342628
H         3.43535663177569    7.06263820940398   -1.56358945656318
H         1.65942541001499   10.21503536778041   -0.59069874544251
H         1.44895044199051    8.61618666311588   -1.30199050324189
H         2.40643803046095    9.83896130783060   -2.14052763579970

