27
CSD_code = OJIXEL | q = 1 | S = 0 | Stoichiometry = C11H9ClN5Pt(1+) | MND = 4
Pt        3.02610180024369    1.67456379404164   13.42021619092302
Cl        0.96138476749537    1.42255731266442   12.69671501137984
N         2.76102376063377    1.06102016001850   15.30113453785276
N         3.68455202238960    0.69437505453034   17.25841124439842
H         4.36434140604739    0.63070039632144   18.00069659141212
N         4.83384297066227    1.89506557278709   14.05322311193228
N         3.85140702174725    2.35749042279280   11.73567204837725
N         5.67746840383050    3.06301351111472   10.74267696282176
H         6.63572080597123    3.32894075661880   10.57518686487598
C         1.80201513992151    0.60004248400229   16.13603481064936
H         0.78825783873513    0.46637163253273   15.81270664116179
C         2.36853470894215    0.36789036725511   17.36185965399867
H         1.93572381510121    0.00363767219986   18.27050021576316
C         3.91194405833383    1.11584473795076   15.99672155158865
C         5.11140815422100    1.58034140592706   15.33155896246219
C         6.40835762187281    1.72769339661134   15.81366827954314
H         6.65561575809511    1.48174755878880   16.83317080488817
C         7.38531273240749    2.20155220395652   14.94494067098298
H         8.39663806933339    2.32310553379857   15.29851922645340
C         7.07718746758575    2.52135799983866   13.62705859879181
H         7.84024100923440    2.88740205754393   12.96020044062055
C         5.76439239841854    2.35545318025043   13.19716431438540
C         5.16391730408894    2.60324910796026   11.90291472914361
C         4.67294488321893    3.10845834775902    9.82716806935887
H         4.82568916376053    3.44105384316043    8.82133374966973
C         3.53890218091573    2.66647003484583   10.45644861465520
H         2.54257473678601    2.55480145473089   10.07569810191116

