147
CSD_code = OJIYEN | q = 0 | S = 0 | Stoichiometry = C76H60N4O6Zn | MND = 5
C         0.35418175817869    7.45730521044616   21.23076280052786
H         1.39678878790017    7.65012417575287   21.02025846511768
C        -0.42099712472108    6.77488547998962   20.30293978136791
C        -1.75958597155713    6.53484312556906   20.58149169052115
H        -2.36179484851317    6.01019844781488   19.85616474845256
C        -2.31553652513819    6.97584482239084   21.76898233147805
H        -3.35931020678197    6.78896948235320   21.97473896755470
C        -1.53735190129052    7.65194601200638   22.69295988381364
H        -1.97098209712307    7.99438061577950   23.62093305835256
C        -0.20075882028423    7.89026176479106   22.42196106604034
H         0.41083738533093    8.41949635322228   23.13793991833667
C         3.42594824354612   -0.28008567333233   -0.80299792413343
C         4.17581669068409   -1.33439556232774   -1.30703773219854
H         4.79096332327019   -1.92180744499962   -0.63989908259628
C         4.13964920300645   -1.63543451993605   -2.65685720670332
H         4.72722195029078   -2.45707576498395   -3.03944856484066
C         3.34770427616891   -0.89023319816949   -3.51383889823143
H         3.31623790729376   -1.12881632509657   -4.56667249093199
C         2.59505487454812    0.15913806958666   -3.01532146587998
H         1.97426016223059    0.74250808003607   -3.67938605865446
C         2.63708630882408    0.46659239811897   -1.66706795084644
H         2.05047752186532    1.28139352429650   -1.27227552329671
Zn        0.89430815245947    3.45654543235701    9.58106192891495
N         0.30642562653188    5.20529751921295   10.40823024213438
N         0.74705854456142    2.53941056491744   11.38229725384383
C         1.36579571576086    1.39415913570707    7.37059526046834
N         1.20764727265503    1.63796380106026    8.69679560397560
N         0.79499891269616    4.30590276634250    7.72610946533294
C         0.59898533816961    5.62293745235546    7.46164681117655
C         1.31841226495350    2.34363727519830    6.35000233144408
C        -0.02121364768047    7.44618666675199   10.73723594960056
H        -0.11864695969763    8.48941017366199   10.50729131314587
C         0.19695388221698    6.39984596685709    9.77415305981970
C        -0.05079023869596    6.85488051650420   11.95330704890356
H        -0.17681021548920    7.32024791504084   12.91152544943131
C         0.23375743256784    4.50367500539111   12.75828205343828
C         0.32158234079057    6.61638666889306    8.40153744794518
C         1.54380569448749   -0.60302695977467    8.36961940434136
H         1.64216902187830   -1.64570962328421    8.60122674254670
C         0.52126803918486    3.15114012872368   12.57237337613672
C         1.04250510782435    3.69833339027041    6.53722010617834
C         0.15335355478072    5.44774836582690   11.73397453486151
C         1.56924203668556   -0.01206949514412    7.15232738635537
H         1.69060254470376   -0.47706174623842    6.19341110279390
C         0.16343804812057    8.00202675328820    7.91080325539921
O        -0.77728997709691    6.32408037855253   17.99542375801285
C         0.97652552834251    1.22904042689732   11.64982965007496
C        -1.23565026822325    5.49628953158436   14.51167352588040
H        -2.02906897779278    5.54421037075831   13.78062053360020
C         1.58418945640326    1.87788967291900    4.97220144383425
C         1.21776167733624    8.66811809149364    7.30030641164201
H         2.16818709478561    8.16603082481196    7.18783398177347
C        -0.44596176953300    5.86931133171540   16.75635997020174
C        -1.46013180352221    5.93184509383518   15.79843152759722
H        -2.41855764406473    6.32906836202981   16.09408895097460
C         0.00357929722312    4.97694635315306   14.13999214469134
O        -0.38662200402808   11.90340593950870    6.58042769586762
C        -0.13143327678215   10.63119753333718    6.98959452309013
C         1.08212020390202    9.96863962063391    6.84464404348393
H         1.92968070940609   10.45057849371435    6.38230423583978
C        -1.19703776138965    9.96604575970037    7.59979778369209
H        -2.13395716729597   10.49041214623900    7.70446734839736
C        -1.04881462490886    8.67506149736979    8.05512537880698
H        -1.88167790674342    8.16908660835380    8.52035307815616
C         1.32734120479181    0.44278252376554    9.33231942649571
C         0.85410973391849    1.50274211957917    2.70813274303020
H         0.09367956365771    1.54077993219486    1.94389499678843
C         0.60681151784050    2.18977614348228   13.63886808272591
H         0.45215061340374    2.40242231747974   14.67869449065070
C         1.00557331422084    4.66786552376557    5.47582917329378
H         1.17867228174125    4.45729004252209    4.43828764887406
C         0.59874735800716    1.94018719067088    3.98868277452618
H        -0.37794007769904    2.32478268609113    4.24239644443030
C         1.47028653823784   -1.14088693771930   11.20486724107888
C         2.70339628293158   -1.76785079501978   11.03403368458658
H         3.50284501012483   -1.23775216088090   10.53628293982402
O         2.25426370564459    0.59728523800583    1.07433768531018
C         1.24805020710108    0.23443357316941   10.70991539511681
C         0.12416084981088   13.99805623424317    5.57417025487897
C         0.64435617312922   12.63699304466743    5.95668077047679
H         0.98465134821900   12.11231339748719    5.04818010923820
H         1.50442864683501   12.74266680907195    6.63351549743077
C         0.97444175332551   15.09566731486137    5.57199804634138
H         2.00761029811886   14.97416072800951    5.86590236344964
C         0.45900470421095   -1.84038361962567   11.84988188242245
H        -0.50667257912235   -1.37377517630282   11.97846550880477
C        -1.20140207554213   14.16485917135246    5.19768006865062
H        -1.86189578933264   13.31187256145197    5.20622400473210
C         1.00823951690532    4.91936262466586   15.09654148658292
H         1.97921881883765    4.53372137112114   14.82123564153763
C         0.79574734711733    5.36151630062890   16.39155979857470
H         1.60633129749768    5.30582788337448   17.10169280303350
C         2.82836294541737    1.36558889028478    4.62932471357126
H         3.60486240069598    1.31534982228449    5.37959149891461
C         3.09792663952881    0.92907219683346    3.34325423194620
H         4.08000334174556    0.54282288763610    3.11840929761776
C         2.10922214618794    0.99356109282377    2.36791382187213
C         0.71749048863032    5.86005424529362    6.04849929097565
H         0.58650573990714    6.80883464652396    5.56589938989864
O         2.21194106866382   -4.99761618955368   12.57116911373427
C         1.89442112822850   -3.74368823427080   12.14938026167732
C         0.90386088342309    1.00002222654281   13.06781146868601
H         1.06359595004141    0.05630866833792   13.55204129114131
C         2.91564844582598   -3.04601602102450   11.50122125937366
H         3.86939325202769   -3.53478654894327   11.37678314353404
C         0.65879683809086   -3.12831214561068   12.31659015660169
H        -0.15690751332878   -3.63823656202702   12.80507380626502
C         0.19163942288615    6.27754757415533   19.01968565136314
H         1.06110922734284    6.89639342500051   18.75505935001527
H         0.53901674336141    5.24084342570840   19.16416656036743
C         1.81833432957337   -7.08548920258984   13.63919108902676
C         1.22709739367050   -5.76042481232753   13.23514949395775
H         0.35934171640035   -5.92101990246160   12.57974086630921
H         0.88326919538604   -5.22831587191076   14.13773356649608
C         0.50624699691724   16.34190307202380    5.19539921233083
H         1.17578949392013   17.18952643217223    5.19614237665710
C        -0.81795434069825   16.50375376707597    4.82510240498675
H        -1.18395296768040   17.47785305646758    4.53601621754130
C         3.14074993902896   -7.16571549819472   14.05414093832276
H         3.74559836627948   -6.27218684902872   14.05898959055768
C        -1.67058642023190   15.41320045730048    4.82965374914053
H        -2.70498011302354   15.53447350533324    4.54331013059498
C         1.57602375329542   -9.44714872834547   14.02169783968881
H         0.96218892547918  -10.33577898375309   14.00728015561828
C         2.89639329596838   -9.52229810601974   14.43092010937956
H         3.31510846238563  -10.46953067255002   14.73723400323970
C         1.04030928776059   -8.23504936405335   13.62365216496719
H         0.01053174579941   -8.18142101095638   13.29955265897029
C         3.67785929265170   -8.37956620441610   14.44342929492112
H         4.70907701543218   -8.43334335833353   14.76040252475334
O         3.01177319882647    3.80814453284101    9.67532776886086
C         3.92430309900897    3.86823043971129    8.88025365226881
C         4.15653735669833    5.01780453825617    7.94330057063802
H         3.55911046468225    4.84935140697507    7.04807929012661
H         5.20373765771295    5.08065862676109    7.66438975944330
H         3.81625744394611    5.93855983024942    8.40872928153904
O         4.83575816155415    2.91811831734950    8.73993776656775
C         4.68727150289677    1.72312886087209    9.52118028770115
H         5.36254126331007    1.00733879337560    9.04772620114317
H         3.65428139440152    1.37530312087342    9.43946314802531
C         5.04774091420736    1.93758498295775   10.98311622087370
H         6.05412209202550    2.34033853064107   11.07295055777702
H         4.99667434816168    0.98757462124880   11.50759668272057
H         4.34303533433133    2.62556408221666   11.44286104395623
C         3.49312245208459    0.06325910205706    0.66228308194025
H         3.73659136197724   -0.83639506144510    1.24564494008358
H         4.29519971993323    0.80338932372031    0.82204316137634

