52
CSD_code = OJIYUB | q = 0 | S = 0 | Stoichiometry = C19H24ClN3O3PtS | MND = 4
Pt       -0.14564719955697   12.06787250721887   10.95851949890898
Cl       -2.00930718997227   13.23935867719666   11.53092211470847
S        -0.02568722330087   11.55630028320236   13.23467405502852
O         2.98399955941078    9.30983274084388   10.18574892902636
O        -0.50336096526141    7.04926717986635   12.62593986858440
O         0.75789590764853    5.57057752361404   11.42580846683047
N        -0.10630937112101   12.76887701195446    9.08975962424154
N         1.52430654510304   11.07601028932443   10.28686382603894
N         1.24587580723077    7.71720113313399   11.36472957775806
H         2.03072414418264    7.44924363292052   10.78591159019719
C        -1.01800781800642   13.50079830916473    8.48206763151401
H        -1.97593840160065   13.60494451259597    8.97367955728363
C        -0.76555997583475   14.14355549166653    7.26416530201574
H        -1.54740664377251   14.73160278738127    6.81102652763928
C         0.46796408405088   14.02736086279700    6.67984343187863
H         0.69774236721355   14.52926819305410    5.75160064639823
C         1.45662010334255   13.23339654912221    7.29673046539762
C         2.74828218500807   13.03684352042023    6.77389778326287
H         3.01913927843024   13.52576968097076    5.85083828466345
C         3.63650459921290   12.23041081567467    7.43706368423541
H         4.62941942547004   12.08630164015044    7.03782242330094
C         3.29295334808742   11.56797418438347    8.61895758412198
H         4.00737788731939   10.91673026904199    9.09198986535110
C         2.03295204199669   11.72599579961344    9.17044371872728
C         1.11471047845612   12.59786252133156    8.51713068253096
C         1.99256043565322    9.86541218933623   10.63714271862349
C         1.14227267416811    9.11761675494867   11.68006156525546
H         0.08397195529241    9.41689010962877   11.61347467235703
C         1.66069600090913    9.38033951224611   13.10546649581229
H         1.02456639970858    8.82220421596380   13.79481882654855
H         2.68042919336137    8.99461021426883   13.18041452812450
C         1.65398533426560   10.85417617740540   13.46473925649529
H         2.35176269915489   11.41765773488329   12.84393907384478
H         1.90715886916837   10.99182560734975   14.51691261731328
C         0.32659056155912   13.22804792489400   13.86443324420728
H         0.57495930246949   13.15090620230567   14.91971017717471
H        -0.57910635523027   13.81398351176668   13.73511179187943
H         1.14554045842792   13.67819362569979   13.30803540905540
C         0.40958031963759    6.78848669064777   11.87683237022591
C        -0.00962960621722    4.40397796642494   11.80297511969031
C         0.03553276661251    4.20234067663825   13.31766750614798
H        -0.45909131576930    5.02978452595657   13.81836272276272
H         1.06818744581507    4.15107396853547   13.65633731430037
H        -0.46882522115483    3.27637122923144   13.57942998189983
C         0.69490903048932    3.24996221591158   11.08821930403460
H         1.72640052103054    3.17993027377279   11.42285810849050
H         0.69217154558981    3.42100456273365   10.01516298424695
H         0.18677298034635    2.31423663036239   11.30136622447305
C        -1.45099292759648    4.53694128340734   11.31189063159910
H        -1.94204161533936    5.36397530170266   11.81674504092354
H        -1.99618462075346    3.62037840327304   11.51904128141003
H        -1.46351980533488    4.72211637404532   10.24001589345918

