59
CSD_code = OJOBEU | q = 1 | S = 0 | Stoichiometry = C28H23N4NiOS2(1+) | MND = 6
Ni        0.99958706377067    7.22544359826436    9.10574681056184
S         2.40077223629573    5.53653116882962    8.61885370435873
S         2.65985787230454    8.30117253348327    8.02879783863750
N        -0.15003750447364    8.82578322411619    9.18491337894140
N        -0.16905945378212    7.09104735981418    7.08670433516951
C        -0.84748659708814    8.24863661478423    6.95685188623591
N         1.97873720062213    7.41479831063825   11.21959779592771
N        -0.15816278094157    6.07038832226400   10.19668971215883
C        -1.53491370722651    8.59611816881637    5.77418877364559
C        -0.85642697678518    9.14909218022614    8.07881832171175
C        -1.59154356706289   10.35238776668102    7.98435691760779
C        -1.46697105246190    7.69576435500476    4.69628727044702
H        -1.97584409623277    7.93065924391067    3.77321500269100
C         1.16615305394536    5.18280403389954   14.05804096679041
H         1.53960748546482    4.95620897404480   15.04518664398254
C        -0.41738999859932    4.83577732089854   12.25887353784186
C         1.85714219155506    6.15771802515303   13.28341440191399
C        -0.75275888651674    6.53152840888219    4.83977504455947
H        -0.67644663423456    5.82031225799558    4.03306387524746
C         1.38958074468644    6.47922591144911   11.99118081132293
C         0.24353766984594    5.79319856405306   11.45651814644873
C        -0.16290530402197    9.65392977734849   10.21165524633891
H         0.41543105505887    9.36492213606723   11.07924006423405
C        -1.20897557804968    5.43969409560815    9.70978392686633
H        -1.50139371455192    5.68539019729676    8.69748285391189
C        -0.12531366384296    6.26690807619593    6.06259272218508
H         0.42706984740865    5.34715546889922    6.20961302112825
C        -2.29200116193122   10.65815499966813    6.78139426919266
H        -2.84382102458774   11.58482983134801    6.73940460293557
C        -2.25840204950986    9.82142075194401    5.71707264085234
H        -2.77960273572715   10.06502825485403    4.80369680956155
C        -1.53192019968292    4.17919717953506   11.71294156094244
H        -2.05571223918503    3.43895923651434   12.29881415452947
C         3.60376053322552    7.76227012717690   12.93558953362972
H         4.48646115187172    8.29286682001817   13.25469407795906
C         0.06961457098283    4.55668665441692   13.56878025423981
H        -0.45608578787408    3.82040092828262   14.15740137935184
C        -1.58656618087309   11.21318483209214    9.09359645046210
H        -2.13673864105885   12.14117136062585    9.05232654137365
C         3.00304373255030    6.82945013014316   13.74466701154798
H         3.39438412620878    6.60332487657411   14.72542949833748
C         3.04648960123220    8.02952946430972   11.67996112574331
H         3.48704543594080    8.77717709816435   11.03202996910342
C        -0.87216531473704   10.85673387830925   10.21090669988225
H        -0.84277493047245   11.49149022763756   11.08169786388570
C        -1.92944756801170    4.48906414359176   10.43561649853577
H        -2.77912280471677    4.00542986525097    9.98148256366938
O         4.41253156430135    6.43436571325735    7.28185485475426
C         3.30239718607575    6.75040962225771    7.88606376288142
C         5.19271672167225    7.44614325023659    6.61264449350727
H         5.10879922739048    8.37665941651212    7.19103494545974
C         4.64308333094562    7.65861851113023    5.20744247709973
H         3.60946734131213    7.99648834857684    5.24690143513724
H         4.69099688070596    6.72869406874790    4.64614345428020
H         5.23454012097393    8.41167769540263    4.69618186454616
C         6.62956705115509    6.95013745455712    6.60370554792894
H         6.97795273825448    6.77768607150250    7.61855162311476
H         7.26838967483015    7.69027071932125    6.13210021443625
H         6.69587274365404    6.01748237338741    6.05022881024324

