77
CSD_code = OJOCAS | q = 0 | S = 0 | Stoichiometry = C34H34N2O6Ti | MND = 6
Ti      -10.04459261343184  -12.64107785709194   -2.45787627954965
O       -10.54721885480390  -14.66387726333189   -2.12328958828275
O       -11.54227930986644  -12.45217883612538   -1.36430607351981
O       -11.47242888730648  -13.01605407309142   -3.96078051048834
O        -8.95603838703125  -13.34170491868521   -3.79998972556319
O        -9.90195333872381  -10.98045019537841   -2.97729430561245
O        -8.89210138997170  -12.69135375334340   -1.14980836888347
N       -12.29941938858860  -13.57600830840726   -1.29985559973880
N        -9.65464812501238  -14.02450192104002   -4.74164093489456
C       -12.51292519501551  -15.99237939648671   -1.66040044442901
C       -11.73058992750775  -14.69186394670380   -1.71040809980069
C       -13.64791231177836  -13.39664560286359   -0.81366940973430
C       -11.80672829901732  -14.55572819297581   -5.79266783712566
C       -10.95638707475686  -13.82141959900883   -4.77107029749677
C        -8.88219020616544  -14.92116225250096   -5.57000662286630
C       -12.51029274510914  -16.82362402040753   -4.05121152470554
C       -12.01953632294499  -16.91451650233492   -2.74615840975357
C       -11.02504855556278  -17.84036256629075   -2.46162729515397
C       -10.53874128434324  -18.69010971480078   -3.43868811360684
C       -11.05684139086362  -18.63115017962636   -4.72094954482143
C       -12.03489255319855  -17.70103029878506   -5.02136695810725
C       -13.52477376973286  -15.80892582552274   -4.41936591943258
C       -13.19970173026056  -14.72773433536900   -5.24238225301177
C       -14.16639067385549  -13.76811359074770   -5.51054012061965
C       -15.44799631487432  -13.88360834636752   -5.00339870975793
C       -15.78341339878748  -14.97869122368767   -4.22586903689861
C       -14.82446796086482  -15.93202499096012   -3.93690925938903
C        -8.83473517858749   -9.84112795086648   -1.17023127744133
C        -9.93858237216900  -10.05219886204446   -2.01993482894115
C       -11.07783945324170   -9.23837396996845   -1.88353301457428
C       -11.09515678990767   -8.24135373564332   -0.92476087099824
C       -10.00671281185872   -8.01323916334060   -0.08958861093820
C        -8.88895146992438   -8.81988291139284   -0.22653640372771
C       -12.24283388381066   -9.48956518255439   -2.79708993737099
C       -10.06126405899536   -6.92735021234384    0.94623063770809
C        -7.62224402026468  -10.67439374594542   -1.30285074039308
C        -7.71896520456750  -12.07995603585746   -1.31269875957869
C        -6.54817073910443  -12.84877732459617   -1.44565806934858
C        -5.32231917198430  -12.21725844143024   -1.55072505134401
C        -5.21142010678282  -10.83098095029925   -1.52187340365201
C        -6.36799000079332  -10.07903638313636   -1.39953411421631
C        -6.68420873945988  -14.34379625928736   -1.47217664574800
C        -3.86320843722954  -10.17827017556933   -1.62762244057980
H       -13.57632272913829  -15.79052553734951   -1.77498495879285
H       -12.34263844171891  -16.45342592024849   -0.68345716865933
H       -13.86543486918269  -14.08484597134341    0.00443563355914
H       -14.37385716751268  -13.53419793405909   -1.61972331451440
H       -13.71208473840551  -12.37186581552741   -0.44946250434332
H       -11.84394125088657  -13.95174299719455   -6.70355784725475
H       -11.35768458887148  -15.51957318948227   -6.02543231114711
H        -9.09536034711348  -15.96388544411817   -5.31879420084130
H        -7.83355857638588  -14.71309499867962   -5.36019853082615
H        -9.08026697746999  -14.74582341240713   -6.62829452745841
H       -10.62498866852090  -17.89145434720679   -1.45995683191914
H        -9.76358232710895  -19.40186407945899   -3.19813952891419
H       -10.69876187226235  -19.30417534028101   -5.48599167715935
H       -12.45025297824435  -17.65545354188669   -6.01886936552067
H       -13.90694403458188  -12.91683518739264   -6.12208043383301
H       -16.18507665846032  -13.12547326608027   -5.22076002699131
H       -16.78702409134803  -15.08913126050064   -3.84233432986784
H       -15.08242090008735  -16.79464861100531   -3.33775948094225
H       -11.97795449361259   -7.62371278348724   -0.82307408471540
H        -8.03714643851132   -8.67077366396673    0.42269629814671
H       -12.03099792953168   -9.09216159680924   -3.79093143477879
H       -13.14595666597439   -9.01728714129376   -2.41623959109864
H       -12.39523057790695  -10.56731870812154   -2.89566598731649
H       -10.74178424677585   -7.20517805121543    1.75163516650537
H       -10.42320424852758   -5.99745244845028    0.51027640165074
H        -9.07792462856854   -6.75272970506731    1.37544113807948
H        -4.42783492866917  -12.81685307837472   -1.65765629152166
H        -6.30786344543862   -8.99937161138486   -1.39488873769382
H        -7.54468974126786  -14.61271599912799   -2.08994174659913
H        -6.86849492062233  -14.72114504084136   -0.46522316647817
H        -5.78249981224749  -14.81103218704251   -1.86226348686743
H        -3.37305467257537  -10.46156535470171   -2.55861225078140
H        -3.95489517223340   -9.09550937344716   -1.60068871002974
H        -3.22125441218539  -10.49241738624299   -0.80488733667268

