56
CSD_code = OJOGOK | q = 0 | S = 0 | Stoichiometry = C22H31ClIrN | MND = 8
Ir        2.15591360238672    5.71542449666010    3.26202530474441
Cl        2.65534528732576    7.99398617336528    3.54953468289592
N         4.22931170457766    5.02733743766862    5.09431231228463
H         4.70730845784742    4.80507953665406    5.96303123686855
C         4.95800481291379    5.21060567031134    3.92378928240240
C         4.13889146063520    5.52743097109784    2.82717169490852
C         4.77198711848791    5.76004587680928    1.61585987702403
H         4.20085833096387    6.04959489696299    0.74726441399622
C         6.15029877493843    5.63787566123778    1.50232744247797
H         6.62156665191055    5.81393310587311    0.54625138851900
C         6.92964795360030    5.30490311867785    2.59803593440555
H         8.00107521746076    5.22116433766979    2.49539724983802
C         6.33500128157341    5.09462990823796    3.82966756028909
H         6.92854877708343    4.85694840595575    4.70099609301293
C         2.91396333594954    5.20058845344998    5.02411410670872
C         2.20404475151193    4.97994023453454    6.32814820469059
H         2.78767039412687    4.27480083132913    6.93090975151184
H         1.22552839331868    4.53861183613098    6.14592253841238
C         1.98892338145430    6.26615199810756    7.17340918706761
C         1.28374106157549    4.85106873823528    1.32684496446454
C         0.93563904918788    4.06222322437194    2.48517187969448
C        -0.01343334129668    4.82846149262147    3.26569714104965
C        -0.08753970614475    6.10607657373075    2.70245131256109
C         0.73420027578381    6.12916606191460    1.50804878592235
C         1.98887082088977    4.31319319712577    0.12210090384062
H         1.32326901814358    3.63235306719359   -0.41313533543884
H         2.88636465603397    3.76128894932604    0.39751686124031
H         2.27216601086214    5.11242390118784   -0.55830075214438
C         1.12138884704491    2.57802157405657    2.57642483602360
H         1.10944168550696    2.23958402134562    3.61043169644723
H         2.06676015395168    2.27853700772007    2.13003749095223
H         0.31549996629513    2.06901712632004    2.04284502969767
C        -0.87312569154571    4.27714229373905    4.35840238554429
H        -1.11326873483636    5.03659333964622    5.10010406421490
H        -0.38996144018668    3.43932762800915    4.85774195529095
H        -1.81281734009436    3.91421561977778    3.93481783132754
C        -0.96886024009508    7.23760139593461    3.11749455904296
H        -1.77279824791312    7.37151185705147    2.39078119987509
H        -0.40116457136254    8.16664924705064    3.16487121219957
H        -1.41278061081730    7.05552081839306    4.09319493788260
C         0.75793748792853    7.28154791001860    0.55580104165099
H         1.48323217206668    7.12411983003471   -0.23928439195204
H         1.01931788054813    8.20190334554936    1.07710031084828
H        -0.22702348702372    7.41694351955238    0.10413383313631
C         3.26890565338147    7.09992899897005    7.22437236646421
H         3.12325526055900    7.95853664966652    7.87522099448985
H         3.52120699847760    7.46602142856222    6.23235405229758
H         4.10322513764370    6.52055396081296    7.61668046880674
C         1.59897946346625    5.83436606395914    8.59062519509733
H         2.40657231493464    5.28307781229724    9.06881970990505
H         0.71476757835519    5.20018766448969    8.57215187621398
H         1.37861740471368    6.70770278377659    9.19970132196982
C         0.86416628179618    7.10508672117956    6.57297360328846
H         0.73093314113311    8.01888913322882    7.14680125911723
H        -0.07438731846011    6.55528187576496    6.58550357522803
H         1.10521272135440    7.37892221660199    5.55053356150533

