29
CSD_code = OJOGEZ | q = 0 | S = 0 | Stoichiometry = C15H8FeN2O3 | MND = 5
Fe        7.16054831484616    5.08117415759617    1.68121961232829
O         7.27093855098193    6.85685687545335    4.02040547150170
O         7.23352869503849    2.26548212190992    2.51851171162273
O         4.28193927455140    4.97393841179316    2.03282221550632
N         9.10952094482461    5.17895976986944    1.33966273073516
N         7.14472793742585    5.74667469582535   -0.30785760258449
C         7.24305046807365    6.20979109549942    3.06792624597071
C         7.22303850527073    3.34981824872010    2.13022734426906
C         5.42164456246970    5.02493855296566    1.87197422071499
C        10.11028488188063    4.89000536206685    2.17958538530488
H         9.82060602778342    4.56060907739056    3.16835877968236
C        11.44978327224357    4.99221865062717    1.84484493616771
H        12.19703722223949    4.74006090255682    2.58051103467767
C        11.81944581693098    5.41409818964635    0.57840796293969
H        12.85765015860376    5.50090783988570    0.29705854752554
C        10.81223499883744    5.72818889873823   -0.33518021955764
C         9.46778250308103    5.59695950326532    0.08564042396696
C        11.06442060516872    6.17405033666365   -1.66685008402547
H        12.09396713468221    6.27042523605744   -1.97912543076520
C        10.05222237888160    6.46854728896322   -2.51592251905786
H        10.25527343659545    6.80569167903004   -3.52196149209220
C         8.68834619103397    6.34534942462658   -2.11649734422553
C         8.41036729366129    5.90360516546535   -0.80172576678404
C         7.60669311468710    6.63639516976164   -2.94977993361222
H         7.77265637917750    6.97704491914535   -3.96046130473189
C         6.32705800193447    6.47612142511665   -2.44457276756390
H         5.46460899756280    6.69045928431368   -3.05603802294627
C         6.14295045314354    6.03715103694247   -1.14340296442547
H         5.14317387838865    5.91227668010495   -0.75128117054164

