55
CSD_code = OJOHAW | q = 0 | S = 0 | Stoichiometry = C19H30Cl3NOTi | MND = 5
Ti        1.00856660118216    9.47796467327716    3.45205523133565
Cl       -0.66491366159938    7.97038942859043    3.19032510244457
Cl        2.93595054406013   10.63841801488915    3.16144167837185
N         2.15244366944352    7.90925302832116    2.98667155865161
O         1.19769648294369    9.26220875468926    5.11688225057196
C         1.73644368309936    8.35917457412556    5.89476036579593
C         1.58166550811665    8.42611421368298    7.29872546930897
C         0.74953721491073    9.55778708133931    7.89104747766737
C         1.38727386649471   10.90649745260504    7.51845546972229
H         2.41051421572261   10.95339025894264    7.88730812986837
H         0.81951036688401   11.71780784316183    7.96878657572299
H         1.40159343616964   11.06148373887376    6.43781705685549
C        -0.68199641196325    9.47527055974475    7.33433681950835
H        -1.11897471786271    8.50460898420586    7.56299294151491
H        -0.70488132183998    9.61786446243062    6.25123078267444
H        -1.29792369420668   10.24796569233990    7.78925805267901
C         0.66686821024866    9.47957655116332    9.41919938598663
H         1.65254448710858    9.55901208070757    9.87203103660692
H         0.19395311058250    8.55452911747125    9.74100127771824
H         0.06445151375300   10.30714875620805    9.78658751348878
C         2.19062659457914    7.45334504481424    8.06635653569283
H         2.07835453117214    7.49775876735367    9.13585998005912
C         2.95067638572951    6.40676391188692    7.52768119523883
C         3.58277905096507    5.39388494559120    8.46998754039367
C         4.54203952212510    6.12609282892575    9.41902510205744
H         5.30836571750301    6.64824178148667    8.85039659700218
H         5.02858058226645    5.41246597209092   10.07990350746059
H         4.01840258928664    6.85316516889103   10.03296093296598
C         2.47638225286743    4.70061489064693    9.27735690065089
H         1.77663330968793    4.20484303229876    8.60820209299774
H         1.92219126644424    5.40917167452981    9.88599693674676
H         2.91049485255488    3.95374553021333    9.93805753381397
C         4.37643508400826    4.31724687958935    7.72521258603599
H         5.19505418322506    4.75556421773322    7.15927318753077
H         3.73508502657377    3.75245827237717    7.05277737698955
H         4.80208810822716    3.62088807912784    8.44424615530860
C         3.08517902259139    6.34904878244278    6.15796293006081
H         3.65334046811693    5.55990173730481    5.69303587675575
C         2.48900980552255    7.30301872595944    5.31599674103440
C         2.65874221639084    7.15989330478161    3.89490691524680
H         3.27827804576931    6.30625332797862    3.60354154576223
C         2.37694904753095    7.63256277833791    1.56358354697693
C         1.83550711413007    6.23730945688189    1.22040676414001
H         0.79880392132077    6.16118825642389    1.54725652142501
H         2.41334649978014    5.45438742446363    1.70562370241525
H         1.88137272441966    6.07786945199920    0.14653322646162
C         3.87444830589534    7.75095245950121    1.24832337248881
H         4.23734376803049    8.72439520522469    1.57652875093489
H         4.03517225775815    7.65438747862230    0.17803962709229
H         4.44818644893968    6.97641619300616    1.75182621679121
C         1.60297993632187    8.68444965875568    0.74891581025671
H         1.97877064617556    9.69399666630625    0.95728681799002
H         0.52696700121886    8.62590226968601    0.95937687294427
H         1.74470601523095    8.49024990501057   -0.31374897587543
Cl       -0.23681540560160   11.14910065297266    2.86329539966773

