65
CSD_code = OJOLIJ | q = 0 | S = 0 | Stoichiometry = C31H23F3N6OPd | MND = 4
C        11.52153974881717    1.76249816728033    6.55528058023685
C        12.89469697996784    2.35617647439575    8.18455875079618
H        13.80155062661547    2.36955082257625    8.75275860225466
C        11.71935273350806    3.00549054693374    8.38213643660781
H        11.42042976862371    3.68934280938547    9.14957072667662
C        13.77317194048007    0.72414167810719    6.51536119388721
H        14.63162844125149    1.32954285063458    6.21160135936927
H        13.36185454074670    0.25246302159155    5.61595917039764
C        15.45649805961649   -0.23230430515588    8.07643563070000
H        16.14608650193025    0.52545550572207    7.73231768456699
C        15.87688880169215   -1.13490326142741    9.06291033485991
H        16.87872700320074   -1.05887915199520    9.45803602443267
C        15.01746884406626   -2.09066953064834    9.52253353323026
H        15.32387332042375   -2.78370825917012   10.29255583872873
C        13.71088169460275   -2.19401706206779    9.00148563910994
C        13.28666433232774   -1.29498424965212    7.98406205665110
C        14.19567255746855   -0.29670366674657    7.54048515129682
C        11.98063421809369   -1.44066702650601    7.46486433393043
H        11.63397581025351   -0.78931589729484    6.66425911560808
C        12.81455963175438   -3.17498833524612    9.47477208927842
H        13.15094304269407   -3.84893733772975   10.24963916041792
C        11.55023402691667   -3.27095401709809    8.96777001961797
H        10.86531797223425   -4.01901147806577    9.33808801154512
C        11.13485526904159   -2.39967685079366    7.95034004914961
H        10.13711076764983   -2.49160280848536    7.54909561173103
C         9.51476919785298    2.99742039627573    7.15313723294541
H         9.39820837448679    3.45598348868067    6.15607428977422
H         9.19217209697578    3.69851125533901    7.92400068735924
C         8.60712207445241    1.72132566725276    7.23719903527579
C         8.35443497462134   -0.45632311479090    6.24924187610305
C         8.99174841811491   -1.42640192709696    5.45607939663211
H         9.95850663743562   -1.19672945681559    4.97779759391014
C         8.42912342961669   -2.67389990758677    5.27208549898124
H         8.93859952766828   -3.40379375094686    4.65901220385963
C         7.22374665388962   -2.99451352262093    5.87631362589121
H         6.78592431439332   -3.97081601458080    5.73287946550378
C         6.59230623291133   -2.05064311185114    6.66853380557668
H         5.65447898025358   -2.29132479141903    7.14768783289411
C         7.14130740077367   -0.79633514395024    6.85663157225135
H         6.64007956839371   -0.07218581715730    7.47680495128668
C         7.94332630952125    0.66407693663576    3.16775487162969
H         7.39502835017640    0.54177196037281    4.09428788637972
C         7.29106163636110    0.58273733101431    1.95000814213183
H         6.22896270579474    0.40272206349236    1.91892055590415
C         8.02958746403625    0.73362474749561    0.78285086150916
H         7.55105200517910    0.66776090736772   -0.18259512604296
C         9.38417458776492    0.97637104468841    0.87824531303985
H         9.99476834821312    1.11005256266208    0.00005615919993
C         9.97392838694479    1.05515743263228    2.14206651645898
C        11.37148440517238    1.33886583692981    2.35234183690718
C        12.46123588795186    1.57378990498932    1.50932598024595
H        12.50009359224330    1.58309344819977    0.44028249592649
C        13.50903891529929    1.80100320651891    2.39759024563438
C        14.93074700456233    2.08463291536762    2.08700644644506
F        15.73770188480056    1.02283857556803    2.30606951892782
F        15.44483888230210    3.08732650209182    2.82068090575862
F        15.11076116484910    2.42412900775673    0.79851239118181
N         8.96427986151750    0.79217799519407    6.35307446986252
N        10.89227812372126    2.63369787024930    7.36123600633350
N        12.75263898245309    1.59886779082656    7.05406532319723
N        13.08570172060510    1.70919986276459    3.67008455619146
N        11.80985879348269    1.43463785971677    3.63167041827046
N         9.25037778369334    0.88309142909335    3.26896116716900
O         7.71714936971371    1.69878769780958    8.07341895766563
Pd       10.45197931788504    1.12577222322859    5.01142792672191

