74
CSD_code = OJONEI | q = 1 | S = 0 | Stoichiometry = C31H36CoN4O2(1+) | MND = 6
Co       14.41258017126051    3.25956345541034    9.23079875314934
O        12.58109409103778    3.08533002197995    9.27656971146099
O        14.17192703377006    4.84925649340796   10.20711860743651
N        14.68206959690979    1.73697181173215    8.12460413445614
N        16.43868661441140    3.30429912099836    9.27088916254694
H        16.82109926180037    4.24106987166451    9.38188838539263
N        14.60422882496515    2.32841448916252   10.84367454452144
N        14.11117061987420    4.48167717226991    7.56749260219045
H        14.83771230714835    5.19322228524046    7.47426109355636
H        13.28924622640267    4.98814992747609    7.90517650263246
C        10.10953176311406    2.72216025637291   10.47041266751287
H        10.87786760926775    3.19471264646707   11.06382261490691
C         8.78595269477129    2.74873713256578   10.86491022024834
H         8.50522519036601    3.24983087843536   11.77914369942165
C         7.81831190012132    2.13323324542897   10.08719149654812
H         6.78363447864964    2.15377567303657   10.39330367590182
C         8.18041708205980    1.49675818686233    8.91095637784883
H         7.42592476984921    1.02832731856189    8.29739665319530
C         9.50501602851712    1.46012739916928    8.51509945178299
H         9.77177188726903    0.98174161761985    7.58515006437946
C        10.48411155047323    2.06514149430866    9.29941673441993
C        11.91989449666662    2.04778113988058    8.93077154082927
C        12.43997174163358    0.94933871560772    8.26355347106377
H        11.77790416467638    0.12808095914380    8.05141678522615
C        13.77516361875414    0.82829876120606    7.85098184543227
C        14.13516288704450   -0.39213408698214    7.05268066706182
H        14.43933094201093   -0.11121199381989    6.04455229354980
H        13.28703417407737   -1.06463755646577    6.97866037110679
H        14.96445987177887   -0.92832604843660    7.51223234000050
C        16.03343417398630    1.55146330500497    7.62900163181003
H        16.03520605913159    1.39674779307202    6.54361005985978
H        16.49130415635129    0.66221265834007    8.08216685060647
C        16.86345818158384    2.78941431291158    7.96557359910566
H        17.93271627779700    2.54328822798295    7.96046115141897
H        16.69025192326329    3.56562201062626    7.21837743753643
C        16.91819666528263    2.48281132581670   10.40191900164178
H        17.14578190074038    3.14891857720888   11.23698524011902
H        17.82582849549451    1.93462996747576   10.13188980094098
C        15.80258158430316    1.52403681166820   10.85392927034279
H        15.70192483213949    0.67857098997432   10.17052544001538
H        16.03630901104035    1.13768225806999   11.84832375059916
C        14.00602163796679    1.69013620749907   13.13118206210252
H        14.04123148267698    0.64970442110374   12.81698473512615
H        13.12796089086951    1.83906334681875   13.75253626546241
H        14.88293481262820    1.90507277773767   13.74176293613644
C        13.94748502951271    2.61363122934321   11.94564643892545
C        13.21856344921143    3.79922163281514   12.08871764314727
H        12.61531662451651    3.92838419304020   12.97029062443577
C        13.43044640623819    4.88768513503420   11.24640184524211
C        12.85895647597384    6.20476425084641   11.60518357586436
C        11.63131894602972    6.32162829095849   12.25405598854546
H        11.05790919635268    5.44019980039022   12.49522257738513
C        11.12380914272041    7.57052284656935   12.56053300003926
H        10.16941737875963    7.65266854283753   13.05813692410830
C        11.83337636085913    8.71477598710980   12.23337136245666
H        11.43669882800524    9.68671307312621   12.48363043696341
C        13.04987423403921    8.60783046922093   11.57898930361629
H        13.60379036581236    9.49668848246414   11.31717634880474
C        13.55478669942235    7.36244929549468   11.25913287937970
H        14.50258941238661    7.26919317798594   10.75004049215689
C        13.78152231650670    3.98034519611741    6.21783695774650
H        12.97698561273749    3.24895029652984    6.31873899995437
H        14.65831415968314    3.48011596202591    5.80108679306164
C        13.35241829619337    5.11191837898650    5.31916794920971
C        14.26133450437600    5.72649940269479    4.46791230959752
H        15.27795004771939    5.36212267220199    4.41219799464237
C        13.86870796002377    6.79225416096935    3.67660484335532
H        14.57976213745719    7.25796305981264    3.01175954640130
C        12.56553421476752    7.25577647527037    3.73591224740408
H        12.25885485908948    8.08419796639402    3.11667284003766
C        11.65521173382621    6.65156282791275    4.58739545805437
H        10.63795139626159    7.00848541549398    4.63345365220275
C        12.04742497112616    5.58614215869642    5.37757236957932
H        11.33574555646792    5.11024424004763    6.03780289708012

