82
CSD_code = OJONAC | q = 1 | S = 0 | Stoichiometry = C38H41FeP2(1+) | MND = 8
Fe        8.45911947308915   -0.77811941644414    4.27025580371271
P         9.44682938929633    1.08896398492211    4.81491689860380
P        10.24442248323482   -1.78929194485863    4.94001937083378
C         7.14202834361730   -2.17778659305556    3.41464918402863
C         8.13063615180885   -1.86577667623837    2.42063816520295
C         8.06909779609930   -0.47809253703339    2.16705141512019
C         7.01211682676609    0.07221000130600    2.97457542033641
C         6.41133704089678   -0.98979387122225    3.70060314190508
C         6.78879760507607   -3.54809898669916    3.88592728258333
H         6.17011113564302   -3.49698700270380    4.77675157936045
H         7.68213936401950   -4.12307247090634    4.12198250074193
H         6.23253213559243   -4.07819591914512    3.11231219926707
C         8.91189608321501   -2.86555190710197    1.63494902216212
H         9.97505917177068   -2.63335922532615    1.61339211410360
H         8.55107372010167   -2.86818278380347    0.60560867119324
H         8.77648657877617   -3.86375229168530    2.04024180444614
C         8.74033434562237    0.24572191192434    1.04472989610183
H         9.19018946883354    1.18082381103934    1.37488005557746
H         8.00009219750658    0.48716991906708    0.28076717332339
H         9.50804094762577   -0.37090637902048    0.58571197229015
C         6.46485502948202    1.45308159057271    2.84098643991293
H         7.18730785987944    2.11270445538220    2.36884105642130
H         6.19023782622720    1.86864568797128    3.80843815416271
H         5.56852491274347    1.42803066703511    2.21946494895557
C         5.15937258042296   -0.90712973681618    4.50734120037038
H         5.25203753116376   -1.46135403012520    5.43857824512859
H         4.33539203146555   -1.33879121913766    3.93847963083853
H         4.90840496017752    0.12468850717525    4.73603322215613
C        11.06118540413086    0.69702330081470    5.65352565979035
H        11.85736526853708    0.72941010646723    4.90533846485315
H        11.27999474620915    1.44363662869859    6.42166633301757
C        10.97535800278226   -0.70464761505425    6.24456545086864
H        10.30312533224573   -0.70279637051661    7.10639085641987
H        11.95821262438704   -1.07800559550951    6.54928951623375
C         9.91676736035348    2.43149854364677    3.66919659620635
C        11.06236636338756    2.36080928110281    2.87944384115593
H        11.73654125925095    1.52159400521132    2.96146521463258
C        11.35803574547998    3.37141530711783    1.98164500259463
H        12.25502605524070    3.30848860688743    1.38427757345760
C        10.50932147021522    4.45749937456637    1.84702273007816
H        10.74171546707848    5.24286447359008    1.14487897037090
C         9.36156131406213    4.53115585993531    2.61945085816057
H         8.69576902336215    5.37507227036530    2.52138072194091
C         9.06397392496921    3.52529992475298    3.52022871609241
H         8.17286802157816    3.59702130883693    4.12692043357219
C         8.57782866962244    2.04741516269204    6.09820900744803
C         7.29652664172242    1.67540940569863    6.48028656163868
H         6.85248186685200    0.80666557046685    6.01436439580121
C         6.61778771788975    2.39625647785035    7.44714518583612
H         5.62053504648760    2.10344471736564    7.74033041448882
C         7.21835763513689    3.49695544561346    8.03526831277284
H         6.69204721780748    4.06085950513351    8.78982192775914
C         8.49478877582885    3.87942150869163    7.65080176593681
H         8.95960374587268    4.74109862262867    8.10525048316666
C         9.17301503523379    3.16389124695400    6.68228210123676
H        10.15876985031897    3.47920013728862    6.36755014041814
C        10.20875310724673   -3.45015164545195    5.66381317947449
C        10.14074425573791   -3.68426140590575    7.03345492574176
H        10.16573459792699   -2.85850285795684    7.72852189200281
C        10.05809234907181   -4.98148411385891    7.51025332179898
H        10.01477776106619   -5.15827789806421    8.57446412089188
C        10.03319708259968   -6.05080923411583    6.63006602913458
H         9.96631666677225   -7.05924241175299    7.00768142130945
C        10.10354128870249   -5.82485050090510    5.26415367607876
H        10.09429278223626   -6.65698798810263    4.57652699269265
C        10.18913866417254   -4.53185710882574    4.78388938576368
H        10.26784902003806   -4.34677272542029    3.72132214356430
C        11.66868660662395   -1.89803090016770    3.80741484749175
C        12.77635578112036   -2.69277704492152    4.08629080416128
H        12.78788573151200   -3.31423837637098    4.97075094840852
C        13.85802312677886   -2.68453971324644    3.22416865967979
H        14.71771005240898   -3.30091405313731    3.43838734464110
C        13.84319806869389   -1.88824614717689    2.08885601514496
H        14.69003851014577   -1.88950658303492    1.42017552254170
C        12.74376380203563   -1.09187625798651    1.81215055613067
H        12.73179682149995   -0.46971401516036    0.92924537294651
C        11.65890552574565   -1.09942542285941    2.67102437481722
H        10.78702601433436   -0.48922126345122    2.48081939113998
C         8.01109240010713   -1.17441099645688    5.92978211753883
C         7.52243634518440   -1.67758560333475    7.01017810083025
H         7.62392471552258   -2.73030372272496    7.23480694398079
H         7.00471634649269   -1.09726676598639    7.75747810727321

