65
CSD_code = OJOQEK | q = 0 | S = 0 | Stoichiometry = C26H32ClO3PRuS | MND = 9
Ru       -1.14224962415526    3.20525830350692    5.01505519512124
Cl       -1.05505869090301    5.37583460711404    4.04496443764641
S         1.65200824974192    4.00738630398480    5.46050262171218
P        -0.15975470752079    2.93071287413928    2.95512510284075
O         0.94023099171342    2.69845776057134    5.20701281013652
O         0.81736761945386    4.86684883795483    6.26172315549177
O         2.97309697067197    3.76145904253878    5.97140824391643
C         0.66606372341942    1.28452573647806    2.46975639787209
C         0.03981854259148    0.19320512351320    3.33443784613616
H         0.18750225007126    0.44954891929524    4.38252420740733
H         0.51444089321048   -0.76698365821411    3.13691740846719
H        -1.02586857285035    0.09295962472849    3.13943912853714
C         2.16546978810706    1.35382184997951    2.77508775330711
H         2.33929045161011    1.68153023321362    3.79767317779183
H         2.67747688400320    2.03437614128720    2.09775994131164
H         2.60151696030211    0.36272363256128    2.65268402304588
C         0.48653372275117    0.98021351843431    0.98248448460790
H        -0.55224011684187    0.80066317368753    0.72092155757051
H         1.05893194603272    0.08795589048259    0.73117039684471
H         0.85654602903054    1.80016162055062    0.37081751358056
C         1.21486374510249    4.11092094434717    2.70302944418418
C         1.90134953620638    4.64007677597717    3.79073779929880
C         2.90548535292012    5.56910749995884    3.62017589159939
H         3.41074162353724    5.93921090796824    4.49803891410535
C         3.25294890425480    5.98749872869665    2.34497442203494
H         4.03016429227406    6.72363532675123    2.20774590220094
C         2.60944181047174    5.43866010535839    1.24823454498950
H         2.89109793484655    5.73787042745901    0.24913857519097
C         1.60013453472991    4.50634072625287    1.42235469580749
H         1.10700527471215    4.08320404398582    0.55877079105727
C        -1.38525052863666    3.29361922620408    1.65320739955076
C        -1.48214786851898    4.51573471580081    0.99565092041025
H        -0.77041575290758    5.29837918328009    1.20350375647566
C        -2.51676036552745    4.74554672903427    0.10537327061772
H        -2.58023785307522    5.69734393621314   -0.40104154798503
C        -3.47333824445859    3.77270182829159   -0.12987272194811
H        -4.27670799001996    3.95676262930968   -0.82765565884761
C        -3.40954130516322    2.56957889065561    0.55403334610950
H        -4.16826205270162    1.81601637082620    0.39628455587608
C        -2.38019005981376    2.33987201485685    1.44707343089499
H        -2.34910990046225    1.41486808489238    2.00637231304982
C        -4.48749009576550    3.08683480204826    4.09579718061634
H        -4.57320617563094    2.23432561228109    3.42682927962839
H        -4.28170265217420    3.97655692069204    3.50127028095979
H        -5.44218834089411    3.22937337701723    4.60444704118366
C        -3.39718170552270    2.87569856065054    5.10730102506544
C        -2.76689545364348    1.61640499275481    5.29135972644355
H        -3.07017803762566    0.77070341861929    4.68373681796090
C        -1.80602679035002    1.44211048967536    6.30223493519024
H        -1.36038310963869    0.46430630567894    6.44990709514179
C        -1.50260367269314    2.48298620655033    7.22931793177096
C        -2.14659096404163    3.71255700035801    7.07829618332918
H        -1.96252419562973    4.52219562044313    7.76915132922311
C        -3.01682354311620    3.92614198745933    5.98191819523085
H        -3.50662813920304    4.89100911082318    5.87811735572470
C        -0.57354514986064    2.16816916969465    8.37724356422554
H         0.24601333713640    1.55750817529057    7.97696512935354
C        -1.34586555911037    1.33738747345604    9.41273290046825
H        -0.68709104670608    1.06770588499490   10.23436261470739
H        -1.74271714978540    0.42384851921234    8.97383587292739
H        -2.17703469829964    1.91599444626506    9.81287947552638
C         0.03705731650547    3.40507779268799    9.03179114277019
H         0.82142571757828    3.10161620492076    9.72117037203820
H        -0.71073646713554    3.96166763259892    9.59452854498906
H         0.47732217746704    4.05411166400306    8.27681055758236

