63
CSD_code = OJOQAG | q = 0 | S = 0 | Stoichiometry = C28H28ClO3PRuS | MND = 9
Ru        7.42762528456131    0.97468024051811    2.73884854914131
Cl        5.10854522648743    1.15937616493816    2.57113699623447
P         6.87797029911969    0.46001680684631    4.91710114147981
S         7.43075756565487   -1.96642322691084    3.23297205944896
O         7.74682918370021   -3.26971381254485    2.72380884635120
O         8.46832444462095   -1.32386518147200    4.03703630061727
O         6.99003108288923   -1.03371716767936    2.16079203509128
C         5.98734311179347   -2.06258712327597    4.27698154402781
C         5.13926669815250   -3.14752017494397    4.24278786739371
H         5.41522508132047   -3.99611531246418    3.63660573089195
C         3.96459070976147   -3.11080470398301    4.97903614922131
H         3.29083327814231   -3.95414137731900    4.96711890834583
C         3.64837215941250   -1.97612195810556    5.70992592160606
H         2.72150825561673   -1.93461103360477    6.26287502939785
C         4.50028158684101   -0.88341166387782    5.73138831205583
H         4.22466468431745    0.00417919044166    6.28038922064024
C         5.69964210984248   -0.92550251707362    5.02308672207788
C         7.02705010235209    4.28473346772110    1.91530095905778
H         5.98474029726244    3.99849319404945    1.76888557348827
H         7.32719169704948    4.90930251781970    1.07371784661646
H         7.10890608524913    4.86544354734190    2.83128644995519
C         7.88748728964611    3.05686617915462    1.97166976608237
C         7.93040512138244    2.17267480053699    0.85294634879064
H         7.32567199380963    2.39509019000921   -0.01911139811859
C         8.75513712522450    1.04819316668745    0.87085043079365
H         8.77166841992209    0.39777467822812    0.00517211300392
C         9.63882471879427    0.78477673480712    1.95754654575083
C         9.61665978323295    1.66192363134714    3.04505482000832
H        10.30503772667885    1.50732097630433    3.86795321249869
C         8.72991977868631    2.77853431884295    3.07300062356392
H         8.78979101515138    3.49197164457641    3.89105261563782
C        10.65698761094753   -0.32919757305140    1.92534810123086
H        10.75668366031625   -0.70616059015235    2.94932866979470
C        12.00125806885841    0.25942912311426    1.47399019075897
H        12.76379231299316   -0.51510777908814    1.47858472540625
H        12.31959428981855    1.06270133876013    2.13553134710783
H        11.92058170642903    0.65697753836715    0.46331045112570
C        10.26302118581478   -1.50404508102524    1.03286586215107
H        10.97087874699754   -2.31714753671139    1.17508805235090
H        10.27554996532081   -1.22899427704295   -0.02089756605770
H         9.27536083499512   -1.87356668531894    1.30134934551575
C         8.12989198019577    0.12326823909732    6.19858361142421
C         8.22152644118596   -1.08734349487202    6.87181049279657
H         7.54567068334249   -1.89240509025172    6.62238679216876
C         9.18917722073393   -1.26147116853058    7.84501671247567
H         9.25973445148153   -2.20476299286808    8.36663178843823
C        10.06902020753717   -0.23572194492593    8.15004987820445
H        10.82654605900534   -0.37965656325502    8.90636963996156
C         9.97527074616125    0.97543358435481    7.48456805946094
H        10.65689504281095    1.77930580609798    7.72356883370645
C         9.00568647619850    1.15454372697432    6.51520231570619
H         8.90998860069135    2.10314819347561    6.00264859811465
C         6.02116484258094    1.80083570363951    5.82878327249333
C         5.81718670402257    1.67732995995580    7.20257541329176
H         6.13156091487212    0.77690763251717    7.71325428828816
C         5.22002126406761    2.70065358396114    7.91443729936652
H         5.05921292347268    2.59268620023108    8.97730925958419
C         4.83206471646167    3.86384833604115    7.26789145461707
H         4.36743666841165    4.66258997429307    7.82709192485702
C         5.04282227192986    3.99707935665652    5.90648480700606
H         4.74039846293014    4.90124857959902    5.39902748726461
C         5.63665188421623    2.97145193356981    5.19026931703010
H         5.77826113860794    3.05542576949992    4.12262233314965

