64
CSD_code = OJOWIT | q = 1 | S = 0 | Stoichiometry = C30H30ClNPRu(1+) | MND = 9
Ru        5.06165279542884    5.91688914148467   12.01372875318061
P         6.85948782269462    4.77709565371444   12.87822500034640
Cl        4.94939056395141    7.04752850862439   14.08387083821801
N         3.38366669285022    3.93490154456896   13.63789720230009
C         6.00597609309857    5.90731524615628    9.97411177830706
C         4.67610633063585    5.45397728270465    9.83875920327748
H         4.47546222417983    4.52475185114150    9.31442366926625
C         3.58306470471861    6.25477383806064   10.26930883879913
C         3.85024788398307    7.49578067918543   10.87418787431469
H         3.02419236256295    8.13434215682621   11.17105026325795
C         5.17792898727309    7.99796645945738   10.97671277821702
C         6.23811275874599    7.19927528330820   10.52884343963915
H         7.24518454378058    7.60387211271642   10.51181492847558
C         5.40761002548639    9.36539217396960   11.53453783163473
H         4.73494202608874   10.08273320309924   11.06650516999044
H         6.43477772901330    9.69032563915544   11.38340752959206
H         5.19617105625287    9.36583015939426   12.60714151067281
C         2.17620405781869    5.81732707489025   10.00707824760932
H         1.87491608464923    6.16650945281562    9.01769016118204
H         1.48902753873315    6.23890200105559   10.73737634051936
H         2.08757893878073    4.73300640870819   10.02284893095963
C         7.14931483600507    5.11013362770977    9.40943219191595
H         7.62840131185714    5.70881648733707    8.62855365047363
H         6.76192287372262    4.20220947851628    8.94045464114845
C         8.22070029062146    4.71640383478231   10.43635939937230
H         9.00978940386707    4.18759741921945    9.89878229707999
H         8.67049139613527    5.60938421805803   10.88070426962974
C         7.68532671544188    3.81073482775359   11.54744156435516
H         8.50988199820275    3.26447751197280   12.01432888665292
H         6.97331110587555    3.08729926820382   11.14005383930026
C         6.46838996956229    3.59142726292118   14.19092006651034
C         6.23652700892993    2.24067062719488   13.95014462697168
H         6.35249160927379    1.83341211411224   12.95666491842616
C         5.85758833434022    1.41228644385384   14.99229776157950
H         5.68540100090200    0.36318984858516   14.80632972378773
C         5.69800071711123    1.92446739784255   16.26917171301022
H         5.40012614144007    1.27345439957716   17.07639060363253
C         5.91660359727446    3.27218582724286   16.50949990542918
H         5.78971836641106    3.67198923774166   17.50366718526231
C         6.29656552288028    4.10678188384212   15.47565611285452
H         6.45886801369880    5.16238524872681   15.64794807007773
C         8.22594037614163    5.74270435191950   13.57519113711104
C         9.28813338092724    5.05619974821842   14.16200055156053
H         9.26026491353741    3.97693369728704   14.22903852153720
C        10.36109467619532    5.76056907063022   14.67281601890951
H        11.18242002425273    5.23000301290805   15.12960199316913
C        10.38045138239120    7.14589993579541   14.60470221618000
H        11.21915908575160    7.69204758625437   15.00774655979413
C         9.32039506068769    7.82929291534330   14.03305494042320
H         9.32948210826148    8.90798472554749   13.99555358230161
C         8.24255405405936    7.13047938943678   13.51747530471664
H         7.39675319694324    7.65971041100617   13.10116043144892
C         3.97686239437958    4.66672347689840   12.94811577053953
C         2.82254995227552    3.15595093499999   14.60024898056230
C         2.43035686459912    1.85353371815262   14.30570307236384
H         2.54488005669372    1.47252067547451   13.30290027026420
C         1.90159545777598    1.06812220095997   15.31232069404879
H         1.59432799246605    0.05718806255039   15.09512562153767
C         1.76348157649614    1.57535512496123   16.59511340475905
H         1.34845290174529    0.95593031595039   17.37483680306378
C         2.15109954735852    2.87614707300621   16.87783556533607
H         2.03765466141168    3.27020247952607   17.87546476779870
C         2.68136147265689    3.67705470131572   15.88528817872773
H         2.99170742856153    4.69144355569061   16.08188389715196

