76
CSD_code = OJOYAO | q = 0 | S = 0 | Stoichiometry = C36H27N5NiO7 | MND = 4
Ni        0.80462610508368    4.73168241211378    9.53384610857545
O         2.27477659747314    2.32549865969397    6.77424688745112
O         0.33547188381319    6.40382947635805   10.32877664350947
O         0.29170975263351    7.82905314910366   12.00760793249478
O        -6.75691619892250    5.14159930437655   13.71771859461230
O        -6.60524144587908    6.97680517370388   12.61103094812517
O         5.50418342305183    2.24526635062003    8.74815749470001
O         5.32315135583998    4.16631765524489    7.79877002367391
N         1.36915126428445    3.10802574846398    8.74581358949808
N         1.53742776329248    5.54729009698962    8.00034885411319
N        -0.16596909312108    3.87178622438521   10.86188324031560
N        -6.12155893079750    6.05646694331324   13.23530797010355
N         5.09632843605474    3.38348354634988    8.69874728020342
C         1.91663008675285    3.22432186280083    7.51818138738791
C         2.03421807239250    4.66707056342835    7.12381857896414
C         2.64016548280387    5.05600044672429    5.93898771071104
H         3.02962679023557    4.28966847123931    5.28777490175404
C         2.72855725818518    6.40644174846801    5.65195434788469
H         3.20291925923968    6.74702838117307    4.74434052861795
C         2.19616009405279    7.31356850649839    6.55674393296654
H         2.23901722337683    8.37505212248731    6.37065457234110
C         1.60771391773727    6.84441133576285    7.71998785967672
H         1.18597986863041    7.52072992870572    8.45264460297435
C         1.23921652369531    1.85385270013858    9.34120233319882
C         2.16853881013868    0.82710582690695    9.15353648399848
H         2.99752452362346    0.97277128456453    8.48117103704379
C         2.02176994274482   -0.38072458889633    9.80815812771062
H         2.75189365461962   -1.15912360117009    9.64555232950372
C         0.95867808712986   -0.59734536418302   10.66803817412969
H         0.85115464938759   -1.54051833821760   11.18129065872601
C         0.02382668359341    0.40652333596025   10.85765873629094
H        -0.82093772999766    0.24361930945904   11.51268127870459
C         0.15002531939378    1.61328128347586   10.19531827023338
C        -0.87613111523576    2.71487511026863   10.35177020212266
H        -1.66236678317655    2.40249060539244   11.05676407010007
C        -1.48624483814206    3.03252958374636    8.98996618717669
C        -1.73645750099284    1.99817459223875    8.09604148543832
H        -1.52990185174160    0.97879130245693    8.38605491860128
C        -2.22883530397838    2.26743620509004    6.83209900568737
H        -2.41020462925815    1.45396347017267    6.14634412963301
C        -2.47414908892285    3.57325044848787    6.44267323803197
H        -2.84307274378952    3.78295729733639    5.45006080150206
C        -2.25513071994300    4.60704481024657    7.33561863827521
H        -2.46713603254013    5.62628082484838    7.04819151845367
C        -1.76855201028299    4.34502457676340    8.60836153289640
H        -1.68084527516404    5.16984072996901    9.31194944727326
C         0.28784795143355    6.70484597366179   11.54889470356959
C         0.26546343981745    5.50128275841852   12.60798730928452
C        -0.39445446334096    4.31134232917207   12.03166597671773
H        -1.16527428884867    3.83006482962229   12.63810258160881
C        -0.44844850576350    5.96609462944865   13.89565817063730
H        -0.18038417944239    5.30205966936646   14.72030487747714
H        -0.08210598546205    6.97116487954877   14.11635884814185
C        -1.94086321640756    6.00810833298825   13.74426053707533
C        -2.55181967676562    7.03628037801564   13.02852387622030
H        -1.94282699148384    7.82277388930776   12.61181419061475
C        -3.92086500933134    7.05779274449915   12.85777630232543
H        -4.40588834168910    7.84754393740297   12.30502647494601
C        -4.69366616808882    6.04415870207510   13.41327005280266
C        -4.10638370832676    5.02109097416825   14.14738117780885
H        -4.73155698477202    4.25519153563543   14.58032078349103
C        -2.73546291334767    5.01059746911012   14.30736594476849
H        -2.27699382281305    4.22359393891342   14.88972027001523
C         1.75929236583935    5.23828547440673   12.95490073260126
H         2.16397536969133    6.18477974482635   13.32211697214045
H         1.79518761947042    4.50834628844646   13.76796914979979
C         2.60243236078691    4.74586262600881   11.81558950701315
C         2.96771264700637    3.40041490846156   11.73515723120595
H         2.59809193429150    2.69945347693799   12.46926609254993
C         3.81159573272636    2.95096536181008   10.73818994230392
H         4.10843940315450    1.91573346379319   10.67916089592261
C         4.27224017781423    3.84965534778888    9.78424780657193
C         3.94383828169056    5.19909904409138    9.85374384944820
H         4.35683754126574    5.88082980254245    9.12466069955703
C         3.11969404421852    5.64554906881035   10.87228233083236
H         2.92015384928300    6.70313890767079   10.97353611714813

