127
CSD_code = OJUBOK | q = 0 | S = 0 | Stoichiometry = C47H72NO3PPdS2 | MND = 4
Pd        4.26548745724166    9.28352047267579   25.84296790906367
S         6.25374739088052    8.59919641620610   24.90000807079601
S         5.28638693494132   11.33986167717925   25.08731865745122
P         2.26395979435868    9.81977759893550   26.54906199460098
O         1.70863666915305   11.12918131188379   27.28040447668085
O         1.14956255316097    9.65683879172140   25.40475260321580
O         1.85497541919906    8.71890401310269   27.63584261126962
N         7.15974139833393   10.57064423606156   23.38025553310397
C         6.30443280874135   10.20436664604564   24.34471557671757
C         8.10951005420872    9.62580852101978   22.82948628921156
H         8.41463039868360    8.93861697898608   23.62399210921000
H         8.98685010566849   10.18524540460478   22.49720811751668
C         7.51726810252125    8.82887152765842   21.67103338637824
H         6.65463681871225    8.26541372934720   22.01814211819530
H         8.25546945616595    8.13113477161972   21.28569549023909
H         7.20624725579552    9.49022213217257   20.86532818896960
C         7.19038468402997   11.92975804802051   22.88267901790317
H         6.17950017147379   12.34123506979957   22.94748358548646
H         7.49372902915708   11.89893903265502   21.83301603254755
C         8.14394644160900   12.80850350971182   23.68743807371965
H         7.81493953597614   12.85597048266721   24.72203020976364
H         8.15389881554854   13.81453840140408   23.27773895687045
H         9.15493873137886   12.40794001277927   23.65980447254516
C         2.25340671884782   11.45428043107841   28.52022482443586
C         1.44433094395731   12.03721831149342   29.50255973917881
C        -0.02901658550650   12.33163028455229   29.24666953755752
C        -0.77139800316573   11.01344161286527   28.98382600271633
H        -0.38274813588186   10.50726574655973   28.10604137963515
H        -1.82921026765511   11.21043501981952   28.82203986699922
H        -0.66935843644168   10.34853116894719   29.83920109389584
C        -0.70715280165615   13.01827946364539   30.43783226785586
H        -0.69674011185073   12.38298523765785   31.32057058322059
H        -1.74656885139966   13.21912143445746   30.18633157919271
H        -0.23087549871693   13.96823705751560   30.67005825180746
C        -0.15880471035726   13.26773149266822   28.03688628550494
H         0.39228451731109   14.18927375266878   28.21541435659789
H        -1.20497072252882   13.51683439333747   27.87110260925238
H         0.22830414524788   12.80209456785466   27.13705754416617
C         2.04758064449533   12.32059415957249   30.72087529317968
H         1.44777879275244   12.76440144518578   31.49556979365104
C         3.38372009832268   12.05403754194952   31.00480696683611
C         4.15264292307126   11.48397584124286   30.00252189810436
H         5.19359867755240   11.25425029714661   30.15318803739281
C         3.58938839402564   11.18852480275141   28.77481796305704
H         4.21814738402241   10.74562744135763   27.99563066913106
C         3.93204686269072   12.38742489805863   32.38385647939818
C         5.41424692508089   12.03106675012795   32.52496358505344
H         6.01848658337955   12.58317259269159   31.80932385847086
H         5.57497072367386   10.96545089342397   32.38110264735713
H         5.75649945842982   12.29084557314875   33.52466861774770
C         3.77602596364868   13.89294364557332   32.63891465949897
H         4.18480695614660   14.15171625147644   33.61332872140260
H         2.73258944830117   14.19416965928698   32.61756389226212
H         4.30996616412244   14.45886499501734   31.87866445620364
C         3.14684648355992   11.59405457012291   33.43780709469552
H         3.22231858557628   10.52771337240775   33.23650526852251
H         2.09531522862950   11.86640786039641   33.43799853610434
H         3.54895000683152   11.78876217262013   34.42973834802313
C         1.64884066641114    9.67452475308816   24.09894309907068
C         1.40348980317830    8.64718721022718   23.18168134439634
C         2.97043321302638   10.87573543647940   22.47038977816553
H         3.55988377773086   11.74804025736893   22.24222754096059
C         0.60421132878564    7.40907578415083   23.56135132038151
C        -0.79717595456028    7.81978549446280   24.03191573537766
H        -1.35437476755807    6.94067450437240   24.34874415289501
H        -1.33987524982382    8.30130076843410   23.22056749769331
H        -0.74161578628795    8.51083009364424   24.86653581527382
C         1.35744711181374    6.68583497760523   24.68912248710185
H         1.03606651588070    5.64937769634366   24.76274849082648
H         1.16863350725115    7.16049962359483   25.64562321033888
H         2.43415572602586    6.70283143028408   24.50424309054731
C         0.43904249762272    6.43088784203008   22.39324173637240
H         1.40080629090309    6.04122280923935   22.06818576366640
H        -0.06701646015364    6.89920688067669   21.55179143413833
H        -0.16901850631467    5.58963038856837   22.71961451225039
C         1.96292953409153    8.79537859291802   21.91727119237514
H         1.78513340043148    8.02303418754741   21.19092426962870
C         2.75704015850394    9.87290217758992   21.53712979147998
C         2.41737346209540   10.77140378773851   23.73462003058370
H         2.53096703759924   11.57619305424809   24.45340693503661
C         3.32245687668609    9.92691109524602   20.12591942974773
C         4.36325838664648   11.03940876565688   19.96804075409573
H         3.91329867894100   12.02148358288602   20.08999059902591
H         4.79803400279368   10.99501473635798   18.97138310044022
H         5.16211796465169   10.92234380239787   20.69632595861130
C         2.16670564144179   10.19167131943520   19.15121358826487
H         1.41463002937204    9.40985475912062   19.21912266392202
H         2.53775402275543   10.22656129763964   18.12909379791672
H         1.69020658507726   11.14250735821384   19.38010223132590
C         3.99606756695823    8.59165016791248   19.77826288891589
H         4.70877130361580    8.31549521732188   20.55140409160222
H         4.52716041882144    8.67608385616487   18.83241999057137
H         3.26999270022244    7.78987502245944   19.68012558779967
C         2.68151566238792    7.58766599887977   27.65835870881847
C         3.78617570237160    7.55861293430158   26.80422623803242
C         4.58246291944311    6.42699927247751   26.79210719610193
H         5.43563921979720    6.38682466057602   26.12664183401128
C         4.30140027514522    5.33442985634755   27.61086279187117
C         5.20904994728131    4.11427071679938   27.54582720221311
C         5.20406568286611    3.56449153593051   26.11269380830099
H         5.83474093171973    2.68004531222488   26.04763753479745
H         5.57596890177749    4.30059971672867   25.40609986465781
H         4.19250755920200    3.29122214006263   25.81957751734566
C         6.63289789023204    4.53262321111940   27.93779225516921
H         6.64028775138257    4.93342431044265   28.94921031069919
H         7.01789800135702    5.29582312516158   27.26783986265005
H         7.30118526139684    3.67456572657501   27.90007032292028
C         4.76510854967610    2.99113095300640   28.48739870580843
H         5.44540812039509    2.14721223001314   28.38938243948153
H         3.76391181442415    2.64604365838128   28.23999519212061
H         4.78492215836596    3.31807966539936   29.52428615013394
C         3.20995151334380    5.41708871464477   28.45966640166200
H         2.99302405188880    4.58819964069196   29.10658050200939
C         2.37497749245838    6.53130566727659   28.51324605185786
C         1.18950424777844    6.60647714864039   29.46940760404052
C         1.04825524841294    5.34777494954473   30.33289643878412
H         0.87368984047049    4.46644241749174   29.72027461752818
H         0.19530986658739    5.46634783067740   30.99844800271512
H         1.93140338874382    5.18984004294084   30.94730032604652
C        -0.11040546861900    6.76782551407239   28.66914631351461
H        -0.10904388629320    7.69083954571261   28.09964814100153
H        -0.96386415693829    6.78497556734223   29.34412612801256
H        -0.23029869064278    5.93406322966283   27.97988790280563
C         1.38528736540114    7.79990267723798   30.41620062107683
H         2.30953529713500    7.68199161155861   30.97869003034888
H         0.55702974829376    7.85816401513524   31.12001036729587
H         1.43807777637100    8.73522414650089   29.86871251585150

