66
CSD_code = OJUHOR | q = 1 | S = 0 | Stoichiometry = C21H37HfO5Si2(1+) | MND = 10
Hf        0.95193076793596    4.99802855288744   11.88684137666123
O         1.90303863055218    3.15279148686350   11.43355864404667
C         2.92599570252249    2.74047361726780   12.07754837755691
C         3.11525622354706    1.25512426989654   12.22588468095970
H         3.51045854886356    1.01050633388384   13.20744237286916
H         3.83348978337295    0.91086683941819   11.48260676724722
H         2.17355715076102    0.73824065824736   12.05920146692322
C         3.90056983717033    3.59655440884390   12.58828115981557
H         4.75377577588664    3.17482230719299   13.09290916322422
C         3.85303039838640    4.97821666423281   12.37858821164159
C         5.03524748675404    5.80907240939154   12.78849567321277
H         5.91278716838843    5.50467233204130   12.22115594507721
H         5.25587099556832    5.66042357099063   13.84280611485059
H         4.83449517911968    6.85947062119088   12.59863686323579
O         2.87029705651987    5.56344547076497   11.81441047922828
O        -0.56992800127459    3.71755918851300   11.50267936454453
C        -0.94069737262041    2.73811859662625   12.22483822541307
C        -1.99513865194229    1.81750242141365   11.67256048411936
H        -2.77382744419086    1.63925284902198   12.40947062524211
H        -1.54622505210480    0.85613459771077   11.42790308588250
H        -2.43043648811756    2.24264627879723   10.77250215742355
C        -0.43804402263438    2.45358286723179   13.50065164977284
H        -0.83710880072406    1.58729692598193   14.00476645297054
C         0.55200535708994    3.17512332777887   14.16444967266716
C         0.99975260960577    2.68614087521102   15.51540328835226
H         0.14361156940505    2.50011719036984   16.15909719160356
H         1.65200021040752    3.42245607329294   15.97700160499538
H         1.54022441098014    1.74733632152957   15.40528979246954
O         1.11155570577078    4.23301011050451   13.71110501511671
O         1.12475667920590    4.86532206177831    9.59339960565215
C         0.30258727130831    7.19197385586153   10.95868094666282
H         0.52513742589960    7.59775535277140    9.98126357753756
C        -0.87481525895669    6.45754107106720   11.29745566203549
C        -0.85365668323902    6.29822846990159   12.71061269378786
H        -1.66567038245319    5.89470585867927   13.30200883755842
C         0.31253035302912    6.90982026983542   13.24019281733776
C         1.00636230120318    7.47773039880857   12.13619519297643
H         1.87497455679661    8.11497047759288   12.21189147592323
Si       -2.35796373781271    6.13384585344745   10.18168764404463
C        -1.92908144257124    4.96012937452585    8.71547553187382
H        -1.51917250307693    4.00713130734079    9.04108507692836
H        -1.25489058654601    5.42799429120744    8.00038953125604
H        -2.83596175486328    4.73460630318733    8.16206054997836
C        -2.91239107026857    7.79275180616574    9.43164956274666
H        -3.78963769156677    7.66044292894968    8.80766622499206
H        -2.13811232441303    8.23990493691664    8.81627687064007
H        -3.16551012547041    8.51035142672062   10.20504914634366
C        -3.75425954486992    5.35045931923223   11.21630973877885
H        -4.57984282060598    5.04170753726708   10.58331943607856
H        -4.14869955949143    6.06302492944292   11.93388911812230
H        -3.41736708697804    4.47894318972266   11.76860307670998
Si        0.73511741378480    7.17295312312485   15.05971417596110
C         0.57827637619947    9.02755133335942   15.45961701057723
H         0.81631280746686    9.21716897774943   16.50065575288522
H        -0.42991998593689    9.38784376084485   15.28316217207767
H         1.24915828343617    9.62932202638671   14.85503617884129
C        -0.49562056918854    6.17057845901250   16.12360181215847
H        -0.16496619045446    6.12075135071010   17.15582517048042
H        -0.61829853440534    5.15280638678115   15.76544552477941
H        -1.47412901621193    6.64053355608467   16.12362928318820
C         2.54023597644953    6.61432111581541   15.37243370002311
H         2.74600772516654    5.65186688882844   14.90998733443856
H         2.74854739734943    6.52909961890134   16.43436572133364
H         3.24121301738192    7.33686376620652   14.96613885206494
H         0.29881719569662    4.93623330202140    9.07737266352595
H         1.55738735400974    4.03837814665374    9.32586642258089

