27
CSD_code = OJUHUX | q = 0 | S = 0 | Stoichiometry = C12H6FeO8 | MND = 6
Fe       11.93579799478400    5.31299395578482    1.07716473546860
O         7.01339510626968    3.08279174900859    4.26516444750746
O         7.99355114189950    1.26623687249930    3.38695838277828
O         9.09482027707153   -0.19056447126809    2.08449758190509
O        10.44098697460328    3.21680515480802    2.79884110639930
O        12.92125144031146    4.28437494783917    3.61494415974438
O        12.12523491894672    7.91250553944717    2.39871691206729
O        11.62922692155609    6.75868871137010   -1.42490991575620
O        14.43947388344645    4.24385543021653    0.01469608803348
C        10.53832549345855    3.79568177912027    0.57031588894694
C         9.87306335155654    4.84056062666086    1.26468032335116
C         9.42568900023750    4.17457037515628    2.56124196415750
C         8.21976542959102    3.26349841660785    2.15903750855134
C         7.64938713545398    2.58788735669078    3.39306987302551
C         8.71240410708426    0.91651873695414    2.27979194512017
C         8.93296767053377    2.14324390152922    1.41320715827634
C        10.42218073734182    2.60904274315118    1.52030722263691
C        12.43446152007668    4.61072855392916    2.63929235546029
C        12.02671253482717    6.89800484737477    1.88500635719468
C        11.70461434480907    6.16669969012914   -0.45201264853474
C        13.44999136846769    4.64396751255921    0.41909642406968
H        10.40388542119560    3.58902694920927   -0.48570792114213
H         9.17080401842559    5.52463062933712    0.80119073620398
H         9.25151909221629    4.79663275476198    3.43552666772473
H         7.44792964133405    3.80980819644909    1.62099208505306
H         8.62974256678979    1.95507107548342    0.38543540848313
H        11.15361790771181    1.80813796519070    1.44825515327376

