32
CSD_code = OJUHUW | q = 0 | S = 0 | Stoichiometry = C8H12N4O5S2Zn | MND = 5
C         8.44044909325522    1.81775472358973    3.23566266294412
H         7.35357814495080    1.79253353203593    3.07094967724551
C         9.19557675694529    1.33024333225258    2.04599101102876
H         8.78746922839152    1.56069432218381    1.07655187708969
C        10.38141784278444    0.72110065907099    2.21275930714256
H        10.97569797891876    0.41865005073813    1.36256116672641
C        10.85318327424715    0.43363812127951    3.52059026615921
H        11.85349015102693    0.05962748038450    3.65280088611117
C        10.00749852422202    0.65075593304211    4.58488673821550
C        10.42560356648976    0.38558011712061    5.95417397182681
C        11.68121416142119   -0.36984206941584    6.27589009137817
H        11.56312462565787   -0.94306346157893    7.19541989076969
H        12.51549133505627    0.32170494634680    6.39783963855827
H        11.92330318019148   -1.06303011630690    5.47771787459698
C         9.03917030298759    1.52575875424559    9.00614103532899
N         8.73969052133534    1.11609208005932    4.43638562934342
N         9.65684141316616    0.89194031313986    6.85248799083642
N         9.88902102440619    0.87826703761929    8.17646654830511
N         9.34242734740787    1.50887154181073   10.32096334639623
O         6.10476343061276    0.80013053477762    5.96745774391745
O         8.75318760938548    3.25234830490526    3.35607312695954
O         9.15636101816501    3.62613682730568    5.74899059929106
O         8.15707440344315    5.37211438831809    4.35421931549236
O         6.94469460290505    3.33243318658457    5.00041256986905
S         7.63355315214528    2.25970260190618    8.48674488446090
S         8.22845228407663    3.98876080828722    4.66132300814650
Zn        8.04691012771989    1.98378665984116    6.03437098095807
H         5.53665378258384    1.56622737674780    5.82224171279571
H         6.15069580268059    0.34054380820609    5.12363512567901
H        10.75735943904852    0.49520607208391    8.54697360359465
H        10.25641469903523    1.24957999054624   10.65382674726719
H         8.74763117533796    2.05095214287302   10.92389097156381

