38
CSD_code = OJUJAE | q = 0 | S = 0 | Stoichiometry = C12H16N4O5Zn | MND = 5
Zn        6.08724694127274    3.04621617893367    6.39798390555686
C         4.44294737666945    2.95580686181727    9.02130396569992
H         4.63184855116305    4.01932702204409    8.99096026667407
C         3.57414108722408    2.39304552067417    9.94668611607004
H         3.06524643690455    3.01256285614920   10.66755338286486
C         3.37824634871720    1.02207687306257    9.91313471486255
H         2.70097298179445    0.54428692943940   10.60577691315875
C         4.06304580762857    0.26791649383099    8.97513134432857
H         3.91198981859428   -0.79824110636577    8.91984715007004
C         4.92568331024125    0.91278024128100    8.08928666983353
C         5.69399097603235    0.19884706868342    7.06199520781820
C         5.87061270574895   -1.28982603970595    7.13230087400188
H         6.78910323036706   -1.59084218729468    6.63106379069777
H         5.03628956251595   -1.79268321746870    6.64321330411856
H         5.92221544767004   -1.62185085365902    8.16563098352554
C         7.46203285410569    1.69012018133114    4.42090891506428
C         8.88730540002935    2.66004951999207    6.92438889681746
C        10.12491728517608    3.14357653530768    7.67486054812874
H        10.00461271651492    4.18959721356528    7.93797885480766
H        11.01300593702781    2.99740740727682    7.06637976357289
H        10.22352365189854    2.56043373411562    8.58852779592764
C         4.24781461184146    4.33210778647153    5.72649078492757
C         3.15400083899942    5.28095457108589    5.28367720177101
H         2.45040975202090    4.76142435121148    4.64097859287473
H         3.59957213535997    6.12180167788433    4.76015825027683
H         2.63763063915737    5.65955800391464    6.16301071987799
O         6.99307018993538    2.81183160926517    4.50464872769470
O         7.79820411976169    3.20387550482015    7.25932184710821
O         9.01307556173909    1.76357263441015    6.07777191206386
O         4.13943036098174    3.10944816762173    5.53182418789762
O         5.24907232244477    4.80911868810105    6.32120083905401
N         5.09234575121120    2.23766661282862    8.12727132439412
N         6.15952991501086    0.95429811327914    6.14865175548595
N         6.88138631960391    0.60900622724825    5.09748586197441
N         8.35626431147317    1.32878329590128    3.46169081622615
H         7.36356800640789   -0.28774688272574    5.07147467782431
H         8.83005675483786    2.11692380301103    3.04474772978139
H         8.96548998192038    0.55416860265478    3.67278140716152

