26
CSD_code = OJUJIM | q = 0 | S = 0 | Stoichiometry = C8H10Cl2N4OZn | MND = 5
Zn        0.49347164723794   11.63338033335657    2.52886359820624
Cl        1.50717924402171   12.90120226264196    0.91814371073242
Cl        1.29985795999909    9.86260832566278    3.50809325478399
N        -1.11687531480615   13.15690335690345    2.22139296759336
N        -1.65783772936967   11.77448899867143   -0.94341284260144
N         0.36659181269075   12.93381039484878    4.32328461686008
O        -0.95953801194185   10.87717446961334    1.00792130008071
N        -1.57850366991847   13.06388813395805    0.97202958161803
C        -1.34037001363854   11.83800422657120    0.36552474988946
C        -0.45458248917197   14.97222099570199    5.23114361024426
H        -1.04963302087537   15.86502937840436    5.12271819540191
C        -0.34031323834744   14.06001650568494    4.18443437893188
C         0.97249973859018   12.66920862545031    5.46512393086449
H         1.51578047667494   11.73465864197943    5.49778036968725
C        -1.28547820444253   15.60264682037008    2.32407646475548
H        -0.74139369448217   15.74405642847011    1.38838200861618
H        -0.98360923721397   16.38818018127781    3.00756157085546
H        -2.35332719096013   15.69436275930161    2.12281527304559
C         0.91536609318403   13.52908224146736    6.55326745520748
H         1.42861155067668   13.28374567814881    7.46870632015482
C        -0.96191672569432   14.24498502502358    2.86833783608412
C         0.18447465046114   14.69946678407020    6.42968084917521
H         0.10716582099016   15.39147385577789    7.25511317235682
H        -1.75743071002089   12.60690326884589   -1.49793027397045
H        -1.38891722774244   10.93035594285005   -1.42298477626007
H        -1.64317251589998   13.89924636495086    0.39413267768740

