39
CSD_code = OJUNEN | q = 0 | S = 0 | Stoichiometry = C14H21IN2Zn | MND = 3
C         1.02684921801841    8.95112698772634    7.72151141155897
C         1.70548516684337    8.90740241366145    6.48474693910441
H         2.53936655382022    8.21755651914545    6.46441547680722
C         1.54117717072706    9.59436611135018    5.30433810025523
H         2.26733529539164    9.36752546838439    4.53389698486886
C         0.52232407620148   10.46369320155701    4.95560490566408
C        -0.46289443664512   10.96637857535363    5.78599405432773
H        -1.21778750096597   11.58768314948994    5.32088326785728
C        -0.56703839100527   10.84029572603185    7.15247665795449
H        -1.39309162390984   11.39721045304590    7.57339181270146
C         0.16369175616327   10.09178204551593    8.10109518581778
C         1.91599433197309    6.80968376934976    8.40948627495063
H         2.88652965086490    7.01674608802499    7.93198818497640
C         1.09492555911617    5.88970301553523    7.49951273192332
H         0.14304876811311    5.66183422746166    7.97492688102751
H         1.63010869639563    4.96075889454987    7.32023523745262
H         0.89564953469833    6.37005686786811    6.54443768319105
C         2.20005011630370    6.11761963036195    9.73827754878140
H         2.76231522260434    6.77972787487720   10.39491244882756
H         2.78456134376421    5.21588234491468    9.57151629717067
H         1.26697037405862    5.84359881395950   10.22579494147075
C        -0.60717842060312   11.45417008763198    9.95219125413711
H        -0.60287885020638   12.28430309581045    9.23110962514568
C        -2.04952391332242   11.11328776383736   10.33610451969998
H        -2.05108454515293   10.30456959540117   11.06581015810590
H        -2.61710164045474   10.78937253445465    9.46633962221422
H        -2.54021419065829   11.98080159870889   10.77052514157847
C         0.17705028546880   11.90245368541918   11.18460036544200
H         0.19710107433348   11.10429854485044   11.92448267994949
H        -0.28552008728632   12.78195386484830   11.62558057023902
H         1.19999129817554   12.14674940895326   10.90809433753262
C         0.12758928524906    7.92016249159603   12.28737965665612
H        -0.44508687759402    6.99760024047923   12.26086688281360
H        -0.42621303682404    8.61193811098587   12.91393310089484
H         1.05157871085062    7.69521922771947   12.81189833693464
I         0.46569338423759   11.09537013972516    2.91740413667812
N         1.19866857630193    8.04227640339989    8.66016446558523
N         0.05274968713106   10.29374307149366    9.39656231882712
Zn        0.46780837818043    8.63969795682069   10.43790980104022

