78
CSD_code = OJUNUD | q = 0 | S = 0 | Stoichiometry = C32H40Cl2P3Re | MND = 6
Re        1.29354114853796   13.54321126642033    4.06950030399698
Cl       -0.73567343003910   13.51092308636789    5.39749977034404
Cl       -0.02190102749488   14.21289217197090    2.27190590651903
P         0.42753772925671   11.32357293839595    3.58063982466355
P         1.27165014302728   15.88313434869440    4.75085666991316
P         2.97108343469934   13.76290539665771    2.33135865119654
C         2.42813014810978   12.94849236284792    5.41604930627342
C         3.28360143121903   12.48015613739028    6.49780424153814
H         4.34282030972070   12.61236428054306    6.24807493471566
H         3.10500404941737   11.41094253986679    6.66633177205587
C         2.92880131691770   13.25430739682863    7.74673269034827
C         1.65137044462040   13.13313175106882    8.28066179720655
H         0.93493393087020   12.48940364339975    7.79394200946264
C         1.29499842064120   13.85744212836569    9.40291928495935
H         0.29992745927307   13.75976430823579    9.81038560499836
C         2.20817019106793   14.71301844412409    9.99849406424855
H         1.92954280311017   15.27953898256077   10.87494483587798
C         3.47766219715795   14.84437554867257    9.46367959558523
H         4.19201925060716   15.51447542420396    9.91983854333173
C         3.83653711687433   14.11915116433822    8.33962837053447
H         4.82958278735030   14.22804083471687    7.92576645624254
C         1.47436278522334   10.15569010511797    2.65644091678746
C         2.75434944466732    9.95891464930636    3.16911728690566
H         3.03565871181258   10.51238452032101    4.05699365501588
C         3.63609941063335    9.09969597553674    2.54388706137677
H         4.62619839772236    8.94572896192462    2.94898069198893
C         3.24944218539435    8.43620439796651    1.38845229189187
H         3.93657282657661    7.76550770424320    0.89400837043405
C         1.98412120655091    8.63951400735637    0.86593298792633
H         1.68519314560111    8.12811255822525   -0.03778406269467
C         1.09559476016235    9.49652450033065    1.49546972347570
H         0.11327882985404    9.64957752121560    1.07402535437801
C         0.09248885840970   10.32042755296389    5.07485544149173
H        -0.32065169957892    9.35569839945020    4.78102766078873
H        -0.61569968250190   10.86701703076015    5.69557697674639
H         1.01720990473883   10.17540847245064    5.62865301473125
C        -1.18907642959481   11.27420598673554    2.75137109415408
H        -1.56539146566787   10.25079423290680    2.73328129355097
H        -1.10933112833590   11.67661586217461    1.74225999549765
H        -1.86298316531403   11.90882056507087    3.32930936078145
C         2.81151625106621   16.84773135479540    4.66963330508129
C         3.94173845868892   16.21061405879465    5.17192449591922
H         3.83880710772035   15.18037042302275    5.49048733744350
C         5.14703962451035   16.87924524005772    5.24555691899006
H         6.02136454012675   16.38535721521561    5.64561597701080
C         5.23531987419982   18.18999265622576    4.80232171125469
H         6.17581128324946   18.71870389322857    4.85910249130904
C         4.11950833328878   18.81836701051557    4.27841143541530
H         4.19098632231058   19.83578426243552    3.92148985660769
C         2.90677032085675   18.15290417907104    4.21271812787869
H         2.04497423863751   18.65598426622562    3.80023620171941
C         0.00214871490918   16.91653899445911    3.95663341796393
H        -0.07536760694853   17.87555274093847    4.46988004958831
H        -0.94658849976768   16.38257985184271    4.03591613293376
H         0.23969611012637   17.05859140244043    2.90263746498594
C         0.88553496918687   16.14262585643335    6.52068758227109
H         0.85478038830420   17.21231101650780    6.72944028977112
H         1.65453261076660   15.66695431010304    7.12558113546756
H        -0.07481912052762   15.68087762935350    6.74436268628796
C         3.35369832882022   15.44569241929290    1.74193615629125
C         4.57438587245921   16.05908271220579    2.00389879221466
H         5.33160922917068   15.54706303073000    2.57587327566493
C         4.82828662871776   17.33575360735175    1.53749849645336
H         5.78418986925754   17.79676295192318    1.73972396967950
C         3.86589809093669   18.02387259562911    0.81877665747632
H         4.06716057254292   19.02263988836516    0.45975923593029
C         2.64421363595200   17.42534725146871    0.56366949309825
H         1.88648788059170   17.95604770009670    0.00448889393769
C         2.39202402602141   16.14402980918700    1.01669604019863
H         1.43668964521683   15.68219490430698    0.81401617197672
C         4.62758299135012   13.06923703995716    2.69294476216182
H         5.31260706365270   13.25608964315417    1.86740537194676
H         4.50529754413654   11.99725674123536    2.83429868069297
H         5.01176581213854   13.50186547036551    3.61324846380970
C         2.62062134179503   12.91565424205277    0.74603815587208
H         3.39585012238153   13.17224085176636    0.02352020073227
H         1.64863583123227   13.22474880522806    0.36806075305950
H         2.61066484156503   11.83994681427798    0.91943606154759

