50
CSD_code = OJUNIR | q = 0 | S = 0 | Stoichiometry = C20H26N2SeZn | MND = 3
C        -0.90107252375680   -0.62690289998074    6.79614670478998
C         0.22453954578282   -1.00015500047306    6.02642929030548
H         0.95457338534392   -1.59056988493985    6.56402964719828
C         0.54109590653095   -0.78195646003571    4.70787229843466
H         1.46775981028683   -1.23135472779686    4.36574174320304
C        -0.11312218251428    0.02541379568655    3.78571724152929
C        -1.36728015450534    0.59992754102158    3.93797045449190
H        -1.69189106613801    1.23610620996916    3.12107580135783
C        -2.28491254455389    0.40354568616113    4.94349054873762
H        -3.23053469004904    0.90290015288056    4.77937962938671
C        -2.19785289264378   -0.28290140138018    6.17387633699485
C         0.28736768511560   -0.86995547242573    8.89092834479547
H         1.17537503478826   -0.55642331096959    8.32308336396525
C         0.41890501979192   -2.34467266389104    9.28036112185153
H        -0.45967536470948   -2.64935803867525    9.84847758649147
H         1.30459634221411   -2.49795650787935    9.89210593464640
H         0.48959548009592   -2.97496636863854    8.39652176685155
C         0.19955807848257    0.00034219484405   10.14358067237236
H         0.07949755426590    1.04501204652041    9.86590842830661
H         1.10540843037714   -0.10194495921032   10.73623123243346
H        -0.65340050738681   -0.30156744922861   10.74794805172791
C        -4.60361019747370   -0.44900832997763    6.40725542548713
H        -4.61654226064664   -0.49346389823166    5.30892058621825
C        -5.21658517427935    0.87258660616932    6.87742437289173
H        -5.21385705086245    0.90731756275709    7.96663410447418
H        -6.24095878722077    0.96294228644600    6.52442077986418
H        -4.64215805503102    1.71881244385793    6.50671441644237
C        -5.42093777010050   -1.62856071200366    6.93168606675072
H        -4.97673906139890   -2.56586242093511    6.60474765025181
H        -6.44055059375019   -1.57556167363966    6.55785645041902
H        -5.44232477592127   -1.61312526717440    8.01969771062124
C        -3.66650998174112   -0.98067468420333   10.63468192389537
H        -3.27984049904780   -1.82310811324335   11.20067234894908
H        -4.74048020127471   -1.11970453121600   10.56593426583222
H        -3.50560279686710   -0.09666211660926   11.24551086543680
C         2.47544480702221    0.96064031259384    2.66274015005657
C         3.53540287384121    0.88441755140391    1.76698996907914
H         3.37760650202735    0.44528312240651    0.79094224765637
C         4.77823277321887    1.36773108514534    2.12942165324157
H         5.60067539260603    1.30650679380278    1.43157398063244
C         4.97058410063681    1.92345969861512    3.38390647136350
H         5.94340485288801    2.29610594863113    3.66791124489772
C         3.91040206552165    2.00253500864842    4.27167247670407
H         4.05332414224830    2.44194538458032    5.24839150203130
C         2.66107263897966    1.52964024796509    3.91455910074946
H         1.83334630912882    1.60121351881413    4.60628400774714
N        -0.91314346623268   -0.66823109603792    8.11059323082158
N        -3.25253268518914   -0.57462993718617    6.90651894824754
Zn       -2.77737549944258   -0.80391989170681    8.83423757462024
Se        0.76222205159200    0.30671261871610    2.08372427473995

