75
CSD_code = OJUQAM | q = 0 | S = 0 | Stoichiometry = C31H40ClN2Rh | MND = 6
C        20.64171470422005    7.32524514805769   18.43297697422553
C        21.33231337533394    9.59454360097424   18.95119081236520
H        21.19404400367300   10.26653966286873   19.79964546167895
C        20.51818435925841    9.99990659053518   17.71302497308222
C        21.16585397472515    9.00880911952822   16.70937798178232
C        22.67562745257663    9.18819319474282   16.96542169237876
H        23.21040709200545    8.26879465508750   16.73694213972669
H        23.08097769948381    9.97173026958418   16.32541571022742
C        22.78511839524318    9.55804488333392   18.45585697548357
H        23.26719041737584   10.52442049905737   18.60034880019737
H        23.35297044158567    8.81575682159762   19.01403125224195
C        19.01075676007932    9.81741611663097   17.88982501763384
H        18.73847638006273    8.78246003418625   18.07513729829621
H        18.48692555549277   10.15201249366172   16.99712049387738
H        18.66363632249205   10.41823376848926   18.72844890384716
C        20.77031626430496   11.46969108097429   17.37069223428677
H        20.50080833122087   12.08728504522486   18.22547443403780
H        20.15399545792461   11.78002825887381   16.53068511260292
H        21.80901477482882   11.66496060163239   17.12859724607485
C        20.78553263846432    9.28416562352373   15.26231250282107
H        21.33839836258808    8.63845238020926   14.58751855838427
H        21.03614697445825   10.31245081182395   15.01782354727277
H        19.71897628371801    9.14529363873858   15.10290029474178
C        20.79258823227915    8.00501912741438   20.76756508876016
H        20.60397749839778    6.92474228569889   20.89112516011185
H        19.93754010571229    8.56908844929949   21.16402690672739
C        22.04523287878514    8.38727856285687   21.51077232721452
C        23.20134507984874    7.63226454049229   21.34827531388187
H        23.17837894290838    6.76166913707198   20.70825009907488
C        24.36337006459662    7.98865268420272   22.00767330679318
H        25.25645089387877    7.39587619136968   21.87665335969562
C        24.38288988771787    9.09842920664191   22.83685743956070
H        25.29125244652020    9.37604839194337   23.35149823376200
C        23.23316187551392    9.84891728980179   23.00882978350711
H        23.24095855015570   10.71218448279008   23.65872913525577
C        22.06985433973500    9.49505270402882   22.34682408739953
H        21.17231617273719   10.08235767259443   22.49080895324683
C        20.59743244051890    6.60873853630043   16.13729232568418
H        19.77045217693578    6.87219372615730   15.47002969667505
H        20.31575027847210    5.69518282961373   16.69842218003386
C        21.82669735433004    6.28296587403039   15.32836809512481
C        23.01549951982750    5.94400061716370   15.96447299172780
H        23.04678214169035    5.89710480355931   17.04337767288769
C        24.13898960183822    5.62796973087937   15.22218558837309
H        25.05656454302910    5.36646798518157   15.72795153308811
C        24.08661091701225    5.63433661068382   13.83812677690713
H        24.96444390579370    5.38742651178228   13.25920015564285
C        22.89878394129966    5.94269992186044   13.19825635897956
H        22.84472380398846    5.93218017116902   12.11911853056594
C        21.77528181865775    6.26446431678782   13.93988426496150
H        20.84769817550348    6.49450175273671   13.43198302623655
C        18.02041796970737    5.68442986747242   18.31896312364914
H        17.95116848765428    6.43363779631028   17.53097355317365
C        18.12206956491044    6.15952040238379   19.62864604366056
H        18.09769697394588    7.24076730118093   19.76862890317072
C        17.65827540834293    5.40888863768918   20.85698493085313
H        16.56444265659534    5.45548545993125   20.91613140443566
H        18.04889971379451    5.92832138442338   21.73655802896597
C        18.12545231107470    3.94209040351562   20.89555708730664
H        18.22787542311329    3.63268511172880   21.93793440676507
H        17.37763687665123    3.29195006771303   20.43883240204957
C        19.44762514436204    3.74558872429722   20.18959576021611
H        20.29363333504126    3.53514043256086   20.84366641700879
C        19.55369095588573    3.38684039124903   18.86338351855471
H        20.46509586925044    2.88303533375524   18.53925419010498
C        18.38518407391938    3.19788726716800   17.92336202614579
H        17.88076170453979    2.25480436380978   18.16203946369275
H        18.77876967570142    3.10328794900317   16.90759122836508
C        17.37447544987291    4.36057339529083   17.96290061849561
H        16.90335180713810    4.44724371667661   16.98117486145013
H        16.57985728196889    4.14955753557547   18.68062478447736
N        20.91281061408019    8.25866908556489   19.34231542244807
N        20.78161182900732    7.64860477203395   17.14007189084156
Cl       22.25060344317140    4.99259982211240   19.21350559381779
Rh       20.02897982146228    5.48814236510087   19.00877753120363

