53
CSD_code = OJUQOA | q = 1 | S = 0 | Stoichiometry = C21H26ClN4Ni(1+) | MND = 4
C         2.17690225342190   14.20809593029077   20.72691915110777
H         1.31125455655904   13.74407041266809   21.18078583794735
C         2.49850552359580   15.52474801853634   21.00838245285184
H         1.87460055285079   16.09564617042633   21.67610760455000
C         3.62907133664884   16.07797640777685   20.43140329486097
H         3.91684278451928   17.09660916730541   20.63846309350307
C         4.38359463100988   15.29366269501503   19.57250935334392
H         5.26668799870496   15.69140010417270   19.09781314114320
C         4.00014180653690   13.98358446786740   19.33390748145153
C         4.77582016842494   13.09273519198661   18.38953970104511
H         5.60233226030869   13.64571501500713   17.95522375544841
H         5.18488179869242   12.24792960618190   18.96563329243327
C         2.82201033100197   11.92472751517003   17.75969573527387
C         4.14318351014916   12.80734773246109   15.90186218051479
C         3.12589551607688   13.86555972939456   15.42598702593615
H         2.94677005761892   14.59799093417535   16.21349098222772
H         3.51129958137282   14.40398654150767   14.56202857090523
C         1.84499972125199   13.08233013113109   15.07380344461578
H         0.98125825454639   13.44135294622488   15.63235278005750
H         1.60897342105823   13.15968362900653   14.01439913601250
C         2.17153071150199   11.63193189088638   15.44825347187606
H         1.57636634955316   10.89975622600700   14.90254201708651
C         3.68287415647612   11.50653345986219   15.18469227890079
C         5.58009233096216   13.20358256417150   15.60871085094619
H         6.28356086360041   12.50315737123972   16.05191315706427
H         5.79361760209669   14.20954872153510   15.96242533686379
H         5.73514797307051   13.20448451478095   14.53429408748538
C         3.95649479644588   11.52713527176490   13.67933682831017
H         3.37436882213258   10.74639942886161   13.19519719089109
H         5.00490601625805   11.32359912252647   13.48076821646973
H         3.69579719907918   12.47537375091898   13.22255263008883
C         4.29356421897605   10.22600193318846   15.75488742794331
H         3.86021742041596    9.36264210108421   15.25504650047488
H         4.13281410618948   10.11237909630375   16.82480468174990
H         5.36495259205189   10.21392274114926   15.57255673479025
C         0.80048563707648   10.72059467648335   17.37298232037856
H         0.18826320586592   10.39630027121068   16.53238500569153
H         0.19139416220384   11.37181226614971   18.01807398899798
C         1.26454927618904    9.53269712738515   18.18641135012181
C         0.84551020380882    8.24410964720171   17.89845685720160
H         0.14176160301966    8.07323927670675   17.09928419927495
C         1.33129261058132    7.18725249582494   18.65286506720140
H         1.00893901547773    6.17767621208644   18.45275894936646
C         2.24316452938643    7.45876783177628   19.65885596239609
H         2.65906750990389    6.67081273558043   20.26477161403826
C         2.61264243675334    8.77187227415779   19.89373986192924
H         3.30623231675449    9.01491855940529   20.68772816796236
Cl        2.20632757582632   11.27128080469075   21.62040176452450
Ni        2.52392027038383   11.61130227767026   19.61091030843572
N         2.91818163779905   13.44954302160379   19.91737567469448
N         3.89973994573271   12.57764773797898   17.34326634329187
N         1.94857113848563   11.46258143156465   16.87796170337050
N         2.12392570159093    9.78979081193661   19.18268143495223

