73
CSD_code = OJURIW | q = 0 | S = 0 | Stoichiometry = C37H31IrN2O2 | MND = 6
Ir        9.73914934994481    8.61137780282050    3.31970447773677
O         8.10999971865264    9.09057068071601    4.78131569079106
O         8.68154040145645    6.63753619405096    3.27424521606252
N         8.69577240417568    8.79778877500515    1.58528440505984
N        10.74953881170677    8.40800963566539    5.07193831196345
C        11.12562396842367    7.96182471756677    2.03369682106276
C        12.46340029253526    7.65010621613688    2.25476364640712
H        12.92317601920255    7.89707797839404    3.20185433321351
C        13.22500985274964    7.03240457304415    1.27745432402983
H        14.26436974591581    6.80430293785937    1.46862850306646
C        12.66267436627477    6.70005375396718    0.05295624448517
H        13.26135177741912    6.21372930911695   -0.70374020581118
C        11.33874209463094    6.99512695419231   -0.19758336302651
H        10.91142909603376    6.74011875913473   -1.15662829127807
C        10.56936907192831    7.62524964450907    0.78077984150650
C         9.18426717579535    8.03112272164250    0.60418536502247
C         8.39257533532693    7.67153497062461   -0.50241671789144
H         8.81120856097548    7.01637473306522   -1.25012164898009
C         7.09573788110747    8.09323104848401   -0.61676317932872
C         6.60100092632753    8.98943376367853    0.37087589603293
C         5.31092160889894    9.55198151444643    0.31978197379140
H         4.64930892138426    9.27852420924871   -0.48743394875259
C         4.89319196132640   10.44676040290507    1.26743378969952
H         3.90015333488475   10.86854429138233    1.21511403816404
C         5.76072138485093   10.83674289010056    2.29464515639185
H         5.43633952955541   11.57161986804895    3.01627624424549
C         7.01670617438485   10.30132930282694    2.38224878510307
H         7.69501064261667   10.60791244290326    3.16161032928957
C         7.45798554082215    9.33984255217169    1.45093470961853
C         6.23793093102216    7.64445385769138   -1.75689097847724
H         5.92359657915573    8.49711213010023   -2.35780861012697
H         5.34427391229282    7.14264834882086   -1.38821878772716
H         6.78443323305989    6.95465508462320   -2.39496636883295
C        10.50208521787547   10.45340324744842    3.47212330017533
C        10.48783573540414   11.49795307523185    2.55318581977339
H        10.15097761250905   11.31881525319094    1.54134733626673
C        10.90585940377495   12.76912540390245    2.90832220513853
H        10.89168739606985   13.56475566865451    2.17646267814338
C        11.34066468113588   13.03128962065918    4.19991787120905
H        11.66094986404565   14.02672820778157    4.47195900055248
C        11.36663433678184   12.01750091217719    5.13492966453975
H        11.71457176886712   12.22873575388549    6.13578484736631
C        10.95476991363884   10.73288834321676    4.77962010000402
C        10.99273409651101    9.58120894514100    5.66651781138830
C        11.26704254501756    9.65666702721596    7.04480195044947
H        11.41571850684015   10.62655409033262    7.49289690254662
C        11.29480815751277    8.53437942869592    7.82739430723106
C        11.13560978385424    7.27505267418668    7.18547269514159
C        11.22097562663012    6.04772011124999    7.87089903519109
H        11.38988737040643    6.05094746291015    8.93655110774719
C        11.10734647698071    4.85780477347122    7.20430662543402
H        11.17315206490621    3.92471230866532    7.74448208772720
C        10.92995095647126    4.84586667386775    5.81564579486594
H        10.87967467267080    3.90249141768009    5.29262530113458
C        10.83097308330514    6.01926071945278    5.11914158540492
H        10.70969246369828    6.01780694930272    4.04824611839250
C        10.89159351835484    7.26055053474346    5.78405547584932
C        11.51011428329126    8.63087138410413    9.30437113074958
H        12.42451305783448    8.11310799564544    9.59215501097782
H        10.67975974422965    8.17517457196877    9.84217213078735
H        11.59138653595955    9.67110500163355    9.60926076007879
C         6.22778576881391    8.96537675050232    6.20595372000912
H         6.58334330058829    9.95065631364221    6.49798899973531
H         6.15197990633575    8.32967905537365    7.08548797375597
H         5.23762279322766    9.05998595302147    5.76348003795607
C         7.18241390160658    8.35607265171652    5.19144286202545
C         6.91731760360029    7.03754560805085    4.81217097021328
H         6.06166574433171    6.55927484772569    5.26604052945208
C         7.65681632472878    6.28090557466854    3.89938499747928
C         7.16494023346615    4.86393276410931    3.65052158764463
H         7.75835587340625    4.40280830312682    2.86456202844154
H         6.11703730435264    4.87205159168762    3.35853728085479
H         7.26324176612342    4.27803096501295    4.56272435565792

