79
CSD_code = OJURUI | q = 0 | S = 0 | Stoichiometry = C39H27F8IrN2O2 | MND = 6
C        10.96195130518600    5.78238250451673    1.38505857846221
C         9.86645332148245    6.09576866171402    2.21508477226165
H         9.89722248012617    5.78447169293449    3.24607717329371
C         8.78418208155985    6.77178908487882    1.72220645558966
H         7.95174539799246    7.00119814827873    2.36989673988535
C         8.74045659527280    7.15878552726161    0.37696524462025
H         7.88392353426533    7.69903079247659    0.00271814791745
C         9.76915619028610    6.83233210061246   -0.46383288430334
H         9.71827442068042    7.10626073323265   -1.50569517619606
C        10.89390679483722    6.12502919433242    0.00519706033407
C        11.96111045864008    5.72211811490112   -0.84334762686843
C        11.97984065018218    6.08066566181800   -2.29325739200364
H        12.87768191087995    5.69587548128623   -2.76917991814231
H        11.95494500619774    7.16192823146644   -2.41983236182325
H        11.11215632193557    5.66138464470122   -2.80064211963933
C        12.96413337916727    4.96917777558118   -0.29217310389778
H        13.77069812309452    4.61663165794603   -0.91444026439890
C        12.98620179224397    4.68040304853822    1.08354112548532
C        14.01082153643819    3.86350738449096    1.72284041701516
C        14.99664701410795    3.16950712289948    1.03012885368908
H        15.07750142038988    3.23144553081331   -0.04366810401469
C        15.90169158857435    2.37651228280233    1.71719710506660
C        16.98374466207427    1.62688960338183    0.99553411247758
C        15.79569054326823    2.28753016874416    3.10475422449972
C        14.82498557197361    2.97815174660540    3.80243869486444
H        14.79702940529967    2.87306082795716    4.87611709113217
C        13.91166692749085    3.78544862749716    3.13116445061914
C        14.25478575038189    5.72705536698424    6.36726355455108
C        15.34801541430966    6.06812860862792    5.54517303379306
H        15.32010421823715    5.77994347212679    4.50738557461906
C        16.42395884286254    6.74275105477933    6.05363651347079
H        17.25419124197452    6.99473359596889    5.41148863563328
C        16.46410358024084    7.09904222699431    7.40748816722958
H        17.31518382647874    7.63932764447073    7.79393895161915
C        15.43923261495971    6.74244736335480    8.24065879213483
H        15.48791391760224    6.99206760970963    9.28872757287423
C        14.32072579344900    6.03632601018469    7.75505505542618
C        13.25804498972630    5.60240170014786    8.59394099752183
C        13.24111503459477    5.91841156085552   10.05380946692015
H        13.25869625282028    6.99579517042904   10.21193372897674
H        14.11347266386207    5.49058463441841   10.54624071580693
H        12.34740919361186    5.51341866326293   10.52080167040396
C        12.25809320919744    4.85964719037372    8.02350732270759
H        11.45495617599240    4.48511456580759    8.63734296693600
C        12.23483499295107    4.60924999981683    6.64024183989958
C        11.20989217784659    3.80998474965413    5.97931437719108
C        10.21673172253107    3.10670372805005    6.65196239488029
H        10.12958166618154    3.14699398137523    7.72628976457088
C         9.31068999212530    2.33386748955366    5.94347828951944
C         8.21793406816966    1.57838938525673    6.64263039714189
C         9.42394117947909    2.27268257043602    4.55500691339240
C        10.40090771605503    2.97386466501452    3.87695694350269
H        10.43372874872158    2.89183150562385    2.80142500269439
C        11.31324516015427    3.76370535489301    4.56987294520371
C        10.49986645613903    8.87049271725027    5.20801702637078
H         9.97296269383719    9.43485389784692    4.44081417938267
H        10.97547352724918    9.57535780137252    5.88614317097668
H         9.78534845170968    8.26152213511010    5.75641450769292
C        11.53995273558480    7.97863227025191    4.55644795881634
C        12.60194178802912    8.62478713096191    3.91961492490783
H        12.60064582861268    9.70424018339281    3.93760431414151
C        13.66608783855685    8.00283284501892    3.26246521975613
C        14.70606009760830    8.91895773392623    2.64521758584123
H        15.21834258875410    9.47080051529524    3.43190321520290
H        14.23171201855108    9.63508240705664    1.97761344778000
H        15.43264612571294    8.32946276656168    2.09136006675553
F        16.93840242727234    1.81860143050825   -0.33461214287035
F        16.91411360482975    0.29938041539163    1.18136818123865
F        18.21666193598572    2.00077577064720    1.37958336719332
F        16.66486847058366    1.51874350743394    3.78159682255500
F         8.27545964021929    0.25486182161154    6.42720838026975
F         6.99070815220233    1.97315172194158    6.26052936397959
F         8.25774387515709    1.73974303033525    7.97692011970886
F         8.55446101916170    1.52277644903756    3.85766408122443
Ir       12.61080465096541    5.10896146564993    3.86836571646164
N        12.03577427411059    5.13299312752906    1.90513017245392
N        13.18451553496145    5.08513619641344    5.83100209302621
O        11.34712447201819    6.74074703054005    4.64039981867192
O        13.86161321402333    6.76894940907951    3.13640552392139

