73
CSD_code = OJUSIX | q = 0 | S = 0 | Stoichiometry = C37H25F6IrN2O2 | MND = 6
Ir        4.73987063773369   -4.49595735895970    3.72358328022978
F         6.39612661531065   -2.99556533147978    1.19302420409331
F         7.63731167695323   -4.18884755840526   -0.88890846593900
F         7.80942314526239   -6.91939413949785   -0.99925660738952
F         7.53747446940058   -5.45405986651138    5.35040120212871
F         9.17519503406095   -3.91113428127819    6.84533207488689
F         8.74634869619091   -1.21146225901002    7.00487464757141
O         3.30790374136723   -3.91034720351358    5.27537895863030
O         3.00100717436954   -5.47970994789720    2.82070775277630
N         5.09442036541424   -6.42649543150526    4.28832448053986
N         4.39390215277771   -2.56406060710624    3.15687005927904
C         2.06335898380239   -0.43452692620250    1.24302634311019
H         1.69404116616388    0.57872060424859    1.22711114571998
C         5.90837387799608   -5.08509249668155    2.20464078881729
C         6.46610487564772   -4.34579855782066    1.17074740942211
C         7.11058745377186   -4.93900358931151    0.09183946137144
C         7.19651886726963   -6.32654693781273    0.04276573089904
C         6.66522738650235   -7.10321622292971    1.05029262115911
H         6.76944917491272   -8.17323132871323    0.97533453410804
C         6.02863902054816   -6.48721061741921    2.12548137238357
C         5.49558598774779   -7.20161995046244    3.27966292073882
C         5.42078210707892   -8.60315418751561    3.35845785952314
H         5.71481192326594   -9.19118923282197    2.50428566492586
C         4.94614493766989   -9.22627103845961    4.48195578798699
C         4.62266140297508   -8.41255422811291    5.60126806750021
C         4.21122391455709   -8.94388542606783    6.83960542911247
H         4.10819140839909  -10.01237635260232    6.94470507224642
C         3.96218265753082   -8.12831307908330    7.90930298176447
H         3.65088646212051   -8.55014212663744    8.85327028111574
C         4.13677894689364   -6.74390331614079    7.79078368406474
H         3.97821689874335   -6.11142653808990    8.65126942104931
C         4.51948559048215   -6.19269418757635    6.59902330673429
H         4.67202960024386   -5.12989611340687    6.51003662526670
C         4.74002818649691   -7.00054763052990    5.46529983446349
C         4.80625223017444  -10.71296586079631    4.53455435860206
H         5.07136263997121  -11.15461103519044    3.57769165170590
H         3.78200814877407  -10.99326411394512    4.77581926170887
H         5.45993082688059  -11.12862540679832    5.30026630228087
C         6.23291692665388   -3.58195548509348    4.70113952374017
C         7.29915098698526   -4.12413098809784    5.40533810803815
C         8.15498025795544   -3.34868183424813    6.17835172088810
C         7.93300692725773   -1.97751296552046    6.25351317558297
C         6.89245117760565   -1.39167127879930    5.56459311058558
H         6.76961399651506   -0.32382819013595    5.64217603326647
C         6.05024677412945   -2.18727253433906    4.79094327232830
C         4.96664457279685   -1.66946953888082    3.96375399540438
C         4.55424752927780   -0.32568706746466    3.97771323595163
H         5.01292408882524    0.35469331261209    4.67666512137498
C         3.55945554593204    0.11999118327906    3.14856414839687
C         3.02349031179718   -0.79989040889942    2.20727257858550
C         1.61178521831510   -1.33737191865401    0.31982642776394
H         0.87874070686429   -1.04179579259673   -0.41582846067817
C         2.11913640269860   -2.64258659624673    0.30975179853223
H         1.78649849064784   -3.33747831444974   -0.44658704494592
C         3.04052788888963   -3.03574407317857    1.24090921675950
H         3.44524411562877   -4.03400947156110    1.22425264930106
C         3.49512462884811   -2.14269724591569    2.23205718225225
C         3.08059244034165    1.53380606366466    3.21429351083823
H         3.58619824113957    2.07053622716328    4.01254887417769
H         2.00762814505012    1.56656555707249    3.39753732935168
H         3.27885711337867    2.04584287380949    2.27363000100710
C         2.08453581219634   -4.18605787306679    5.34109414878283
C         1.33506392938870   -3.64586662080460    6.54434775448509
H         1.04649548842561   -4.47264196011455    7.19119923379563
H         0.43361374121573   -3.12525724448465    6.23027451511766
H         1.97525389781697   -2.96615149198080    7.10120964076460
C         1.34220623159229   -4.94842395385804    4.43658602436334
H         0.29647439787501   -5.09508204538255    4.66067575151350
C         1.82889353406098   -5.53722478027365    3.26738196610787
C         0.82854345629858   -6.32157583026390    2.43938443774830
H         0.05469377982829   -5.65159860471861    2.06969266708015
H         0.35514045498910   -7.08940855399813    3.04706980748484
H         1.33337440331403   -6.78538267252314    1.59563903967262

