63
CSD_code = OJUWAR | q = 1 | S = 0 | Stoichiometry = C30H28CuN2S2(1+) | MND = 4
Cu       15.19220398710758   -6.29687781178811    4.31690761722462
S        15.12179617277974   -4.11548098760940    3.58881820505017
S        13.27897577984205   -7.54299369024540    3.90217556610129
C        17.61668795596940   -7.15350200630676    2.62617663686066
C        18.82992727591878   -7.84805835001664    2.45295337237033
H        19.30323792539231   -7.84522783745318    1.48391572921004
C        19.39851008105108   -8.50288978880469    3.51579918017742
H        20.33001330204071   -9.03741548381442    3.40348333150977
C        18.75565251512759   -8.48400567077836    4.76801060500997
C        19.25008169497765   -9.15577840891132    5.92186255193349
H        20.17569368610140   -9.70405987283967    5.83310388099511
C        18.57722204474251   -9.11919591015844    7.09963370369034
H        18.95477391063544   -9.63773568918630    7.96772471111737
C        17.35653016785812   -8.39734030064048    7.22388606304711
C        16.61058644160980   -8.31235816012877    8.41466841544776
H        16.96452639009399   -8.81923982619763    9.29995358348476
C        15.44514108665428   -7.58436616778908    8.44096225969138
H        14.85471282927532   -7.50383565980814    9.33983769985956
C        15.01252305224210   -6.93712693987619    7.27262630149649
C        16.84793260900639   -7.71398073279684    6.10096066421647
C        17.54989498488724   -7.76001047598979    4.85414225730440
C        16.95807583125071   -6.50328203130779    1.47927042533068
C        16.77280289729386   -7.27389122071549    0.33066356314655
H        17.11716626947491   -8.29727908844465    0.32491124510152
C        16.13058263179970   -6.75833291760680   -0.77744732560366
H        15.98810995498962   -7.37395136864436   -1.65157470299640
C        15.67523303058003   -5.44994300920891   -0.76112566673650
H        15.17492573301574   -5.03675244858650   -1.62262265067840
C        15.87291653005403   -4.67058544142046    0.36254676333028
H        15.52912816287288   -3.64693916622428    0.37495079968646
C        16.51067597121930   -5.17683970730852    1.49109036493275
C        16.71073728912618   -4.26469224361914    2.65910584482176
H        16.96613417060387   -3.25828946836757    2.32561437674230
H        17.46490645841483   -4.64034207070943    3.34622251849994
C        13.81158689081372   -6.07766656499563    7.23217877870691
C        13.81228424622841   -4.92467605648532    8.01196815574598
H        14.65745847442943   -4.72611604205787    8.65466520473717
C        12.75665421637369   -4.03394991671737    7.95720382824145
H        12.77375464246796   -3.13989576460239    8.56073017900157
C        11.67580853528233   -4.30260937763526    7.13452495155792
H        10.84283157212926   -3.61846794621264    7.09150616935235
C        11.65317108574839   -5.46299148372723    6.38236982675669
H        10.78599682719142   -5.68799615868580    5.77928180537353
C        12.71602844258941   -6.36169727574718    6.40757864321075
C        12.61668747180470   -7.62983671549723    5.62471315513803
H        11.57848224949563   -7.94624291832184    5.52681627791912
H        13.19589743038947   -8.43279901637738    6.07983776414423
C        15.61984194205680   -3.05696600684047    4.99563744842547
H        15.94178877458811   -2.10609364916467    4.57226334593795
H        14.68885787859072   -2.90594844015852    5.54235687351765
C        16.68037806653570   -3.66042405553060    5.89064173089199
H        17.65083325143588   -3.68352702796715    5.40016682510071
H        16.40413926042754   -4.67492870647561    6.17328174243795
H        16.77539191100965   -3.05998215966775    6.79250787549127
C        12.15304542413103   -6.31060645536898    3.14100586698827
H        11.14725585040705   -6.72739141394214    3.19054740234628
H        12.21444686483565   -5.39471088444680    3.72826245000238
C        12.57367457916202   -6.06765788694365    1.70555372893862
H        12.53645851826654   -6.99114841618329    1.13318763912716
H        13.58826821241376   -5.67520972639725    1.66695451576177
H        11.90446060759492   -5.34489059285898    1.24606658232606
N        17.01386400527737   -7.11610186245730    3.80214967123746
N        15.71053394431450   -7.00346752523050    6.15333367020730

