103
CSD_code = OJUYUO | q = 0 | S = 0 | Stoichiometry = C43H54ClN3OPd | MND = 4
Pd        3.20298865700949    8.69401152521250    6.39283038030809
Cl        1.32042226229074    7.43688214454554    6.47695026199117
O         4.84692775093766    9.92377189764620    6.22686017606187
N         4.25305629672858    7.43482806130506    7.63186046986916
N         2.53898878092089   10.38616839125211    4.00365826578615
N         1.16862324685457   10.63903949431675    5.66618970578535
C         5.86575523746192    9.90552795373686    7.00143322655436
C         6.25966081787497    8.80675276999551    7.82971446702919
C         7.47276980729153    8.87606309202757    8.54070502557414
H         7.76127975935176    8.02098103619798    9.13801392431633
C         8.26932445762620    9.98838932200887    8.51499559039998
H         9.19238437512860   10.01948686079061    9.07322149899482
C         7.85703295193729   11.09807160513841    7.77072906115645
H         8.45897260885739   11.99622784912673    7.77175659311208
C         6.69868409118514   11.05930996841846    7.04721228774538
H         6.37233084688492   11.92124442439080    6.48608933131955
C         5.46605809467910    7.64060394763600    8.01920771819205
H         5.94300450932669    6.85497164356065    8.61611995086613
C         3.66815583527134    6.19906503664982    8.00257297827011
C         4.06100705410128    5.00981485781402    7.38723523231665
C         3.44112930767256    3.82667267230367    7.76731084496365
H         3.73686520360773    2.90786385048528    7.27986446251810
C         2.46494128507794    3.79772871668021    8.74796916712440
C         2.11303118930406    4.98974861712876    9.36809832842040
H         1.35935258930661    4.98213731998900   10.14271864071495
C         2.70098195357836    6.19058052747769    9.01620754562061
C         5.13479818337451    4.97198184025147    6.33645344889079
H         6.06513568224944    4.59644825085333    6.76595786542305
H         5.33032458860760    5.95889860556297    5.91977445462981
H         4.84526517389028    4.30297871279901    5.52866837164860
C         1.78791190242072    2.51585727481523    9.12984955521006
H         1.66814126226415    2.44938068622608   10.20959133917860
H         2.35717669749554    1.65617705222465    8.78440476051844
H         0.79586886574377    2.47264429386263    8.67991118317682
C         2.33080636890997    7.46790576274393    9.70740192815774
H         3.18386415780155    7.86680282789757   10.25982191278147
H         1.50993659893810    7.30428032226677   10.40057490762786
H         2.01515647957912    8.21531620993674    8.97048983576991
C         2.23457941735780    9.96549552862838    5.23363754355047
C         1.53438912186033   11.31942666410432    3.48393686282734
H         0.91060708355371   10.80098344170164    2.74408748073402
H         2.00032805461308   12.17716747099302    3.00206278332468
C         0.75387309717328   11.68917304027590    4.73951893781760
H         1.05327556163246   12.66652648545658    5.14029426183576
H        -0.32507664486561   11.69268492816805    4.59142106928142
C         3.48943692930511    9.86506372700912    3.08143411751137
C         3.33807706016954    8.57213268674886    2.56556132430173
C         4.19965783455996    8.15314527183942    1.55859638986167
H         4.09864511743678    7.15752915023509    1.15549416993704
C         5.17332113584994    8.99065809886695    1.05567276306654
H         5.82112390378447    8.65471207369286    0.25943350881813
C         5.32609952060448   10.25593145095428    1.58624009716715
H         6.10148818474052   10.89965907409496    1.20120323601815
C         4.50132516010584   10.70968799045330    2.60624063664078
C         2.31980164864827    7.59687064839817    3.10196516507292
H         1.65865218829598    8.09769346392116    3.81708968940030
C         1.44298394177421    6.99819925904589    2.00175847142065
H         0.96686517377596    7.78458585339194    1.41854109033233
H         0.66742749153898    6.38453843919743    2.45329012761868
H         2.01987446284031    6.37287585620969    1.32513957190991
C         3.07753193436586    6.50845922387596    3.86917812550515
H         3.71323345795085    5.92895850033107    3.20253231728550
H         2.37593232899509    5.84312197930862    4.36723885366276
H         3.70982282029524    6.99120705625789    4.63400112184851
C         4.75062166825564   12.08115565220858    3.18978919804719
H         4.10551146992822   12.21407978417931    4.06320834197771
C         4.46222196272661   13.18507195150054    2.16744403992136
H         5.15967916645177   13.12169209705446    1.33566102408448
H         4.57271307003576   14.16342182396352    2.63063553672627
H         3.45527061870855   13.10673310694970    1.76110361258311
C         6.19935389540997   12.18602405092942    3.67180460822117
H         6.43569194777677   11.34156993419526    4.31263124148631
H         6.34121762375456   13.10825314148121    4.23191341142910
H         6.89528781223303   12.19013724169758    2.83687117632768
C         0.53973040999119   10.49182638420538    6.93445077962708
C        -0.74120410638369    9.92672040643316    6.99688551872034
C        -1.35113835419571    9.81504365118116    8.23804047413962
H        -2.33566852524182    9.38093163341409    8.30941782859266
C        -0.71539039763377   10.24320156420292    9.38655977825917
H        -1.20334497739644   10.14138226873758   10.34475802428750
C         0.54068467106716   10.80931547981260    9.30901292502575
H         1.01992343608681   11.15636568059066   10.21141202249652
C         1.19098735635526   10.94722750688714    8.08757122718905
C        -1.47961773242095    9.45994072874402    5.76351796525935
H        -0.79045319005943    9.47026060266565    4.91527892046608
C        -1.97609331302311    8.02078877621458    5.90903937960620
H        -1.13998912875060    7.37554761780872    6.16295666895426
H        -2.40783310425980    7.68594540008199    4.96815950044131
H        -2.73615935667723    7.93662396991312    6.68061908070497
C        -2.65882789006978   10.39640975023812    5.47420626599305
H        -3.40013076098432   10.32301914137274    6.26623182269394
H        -3.13462055455693   10.12213804249443    4.53496696155234
H        -2.34183596916548   11.43665929436030    5.41240949244725
C         2.53087786050619   11.65190939580032    8.04039909860701
H         2.95840106890143   11.57192839775145    7.03341376798107
C         3.52868267857805   11.00660529313383    9.00522260475209
H         3.19929848220833   11.08866027191203   10.03814251409660
H         4.50063874088369   11.48806137462767    8.91561492458133
H         3.64164236188803    9.94684618445313    8.75423216763962
C         2.34214909465252   13.13696190803750    8.36535170652919
H         1.63373818155177   13.59664175211509    7.67820622597894
H         3.29213060746274   13.66104429326086    8.28630892746898
H         1.96256225748306   13.26425165700368    9.37645682037024

