50
CSD_code = OKAKIU | q = 0 | S = 0 | Stoichiometry = C21H25ClNPPd | MND = 4
Pd        6.54739876348662    1.27472547746017   12.27386863957926
Cl        5.94368657274005    3.53907339824755   12.25116041322416
P         4.68545298412652    0.96763284082951   13.46035274236499
N         8.36837212419710    1.58950130434464   11.26250738643995
C         7.00827433538516   -0.64443678409393   11.95781179269821
C         8.31620378218558   -0.82662419103175   11.48836923975131
C         8.75387610148189   -2.06542387369317   11.04807532334227
C         7.88856693401171   -3.14672177290216   11.05666355942440
C         6.58366950513005   -2.97651861869412   11.48279140640362
C         6.14704249543339   -1.73424610632713   11.92137613799012
C         9.20039213106543    0.39361502308215   11.48804137019207
C         8.01971151837201    1.71110403604181    9.84743491504089
C         9.06629919686075    2.79377811716301   11.70715125114568
C         4.08010772316931    2.21399746913122   14.60216770013159
C         3.76146815313338    1.66936001648151   15.79054133887207
C         3.26501450257450    2.43052367663871   16.97284460855262
C         3.94165977479932    0.21498142270425   15.84004998615065
C         3.64598503490576   -0.55847502196832   17.08045633317581
C         4.38008590752110   -0.31795426226544   14.68453724831843
C         3.34871185292559    0.80437367850281   12.23154223149499
C         3.69060167691557    0.89271113295725   10.88586991617274
C         2.70659182624708    0.79726844404112    9.91794961551881
C         1.38509406767981    0.61268703667222   10.29109842534247
C         1.04465529242927    0.52410109985611   11.63199500098458
C         2.02281908530790    0.62032820958304   12.60460726295835
H         9.76950223298517   -2.18490538649365   10.69442421785741
H         8.22988133232755   -4.11429345997532   10.71833308067286
H         5.89941819499940   -3.81365487381233   11.47099742123790
H         5.11347203561194   -1.62054029335121   12.23490031046524
H         9.67631428664991    0.48929209045457   12.47293474974348
H         9.99584952237177    0.32802981192670   10.72890357054355
H         7.31409091312682    2.53773869837579    9.71908876051596
H         8.91325714438431    1.90958248780784    9.23793629205980
H         7.55683785259331    0.78255025711301    9.49947149531784
H         8.43946325624513    3.66770814695107   11.52074642891013
H         9.25599449352752    2.73196622204949   12.78265616301004
H        10.02117465017527    2.91250017158175   11.17612342658863
H         4.03457436693812    3.26019278052128   14.35185276785726
H         3.82559167857765   -1.61877214122788   16.92265842461691
H         4.27673862151217   -0.21460438795350   17.89947355204316
H         2.60757143181678   -0.41813903999439   17.37921169465651
H         4.58940626582303   -1.36274347544019   14.53233330358172
H         4.74214437666981    1.04711840273026   10.60950884865841
H         2.96760227028554    0.86930286537038    8.87236388819549
H         0.61681311510246    0.54057406136939    9.53543512274311
H         0.01260513205556    0.38318210557515   11.91844551426746
H         1.76726772275158    0.55656257926542   13.65308308029217
H         3.19375259084703    3.48952810852655   16.74021097625649
H         3.94142746996957    2.30218982336783   17.81730118885603
H         2.28220770056830    2.06957269254903   17.27514187580957

