66
CSD_code = OKAKAM | q = 0 | S = 0 | Stoichiometry = C33H29F2PPt | MND = 5
Pt       -0.72803344778940    3.07334000986543    2.37235138264604
P        -1.81397281585088    2.56430545971339    4.37224666377171
F         2.19958867999874    7.53715222628052    5.40111085965936
F         2.40232682972543    4.36582391583542   -2.77458310133739
C        -3.10329901581049    1.25168357551263    4.04288229385757
H        -3.63124916063699    1.00756096405032    4.97020747170679
C        -4.06614693720287    1.71969727766414    2.99932991785900
H        -5.11655102400022    1.69483277568478    3.25901277428763
C        -3.70289790264263    2.16494350095403    1.78583854871609
H        -4.47934428638870    2.55696754692578    1.13965140793590
C        -2.38662269926876    2.12548172058535    1.19439822830659
H        -2.30326467991488    2.62995072238695    0.23189771574400
C        -1.44661949393397    1.12675467399693    1.46738191461215
H        -0.70374459668131    0.92834283676228    0.69579588799190
C        -1.68041617221554    0.03008794984621    2.37696043724863
H        -1.20013671493949   -0.90068587877218    2.10077207066094
C        -2.44956794510141    0.03103490895269    3.47565278597925
H        -2.62079188378116   -0.90024343649750    3.99821430872298
C        -2.62826266971785    3.72481526140520    5.55311966174702
H        -1.87838024330967    4.49627345274351    5.79055436293642
C        -3.12392564618502    3.12688751833993    6.83186709480820
H        -3.21904883193044    2.05328029197618    6.91231925753128
C        -3.42998435983988    3.91409740685852    7.86921391727000
H        -3.68524864810766    3.46231963844981    8.81937036180789
C        -3.47672673149138    5.34939600901956    7.82274173075589
H        -3.30493983870532    5.86209372875368    8.76038358127769
C        -3.87438652549274    6.07566197123848    6.75558967554620
H        -4.00606325634957    7.14287647895476    6.87867056077330
C        -4.30956242760553    5.52397464636884    5.50227314769944
H        -5.10320809265927    6.05999681284901    4.99763946111096
C        -3.82072462630598    4.40626344922051    4.95393647060576
H        -4.26276266785458    3.98197403115574    4.06273926908993
C        -0.65033042407602    1.64291188050861    5.46334415856194
H        -1.17093643389334    0.88057797978971    6.06067897115724
C         0.42784427386945    1.00182104667593    4.64706542367178
H         0.57389470200380    1.36675578511824    3.62691024572427
C         1.19094812459962    0.03083138742230    5.16754023959479
H         1.88266427038905   -0.50602421569331    4.53178968657122
C         1.19902304194560   -0.32199735801164    6.55581896537684
H         1.50640923169304   -1.33055662429419    6.80088845000081
C         1.04344636119448    0.56920370468643    7.56516101071211
H         1.23247905944316    0.23741471660229    8.57806451681227
C         0.85469026540698    1.97599261966951    7.37448321189417
H         1.34273904706801    2.62569105127419    8.08883605084726
C         0.16836619279393    2.51817931273380    6.35778529572780
H         0.20471939994337    3.57966648279017    6.15772169226391
C         0.33341731224921    4.52886193615821    3.26881140180680
C         1.66782157337324    4.41139680895383    3.65497818795837
H         2.23543805288447    3.52612923830051    3.39706391976312
C         2.30160696054767    5.41590883285493    4.36842621667269
H         3.33341963071816    5.32471036429597    4.67103809211559
C         1.58946195512728    6.55403788057798    4.69213208079378
C         0.26836267064685    6.71521569111685    4.32089059577740
H        -0.25916528533523    7.61805583776421    4.58864889716971
C        -0.34962383204914    5.69682632130567    3.61501605349494
H        -1.39161981962366    5.81915278123639    3.33277611361018
C         0.35638522807328    3.53265061516392    0.72562823639187
C        -0.05549853230427    4.55865748003403   -0.12643000247186
H        -0.92445919169767    5.15606424015366    0.12930360448547
C         0.62048896278909    4.84669592187705   -1.30056223740313
H         0.29835575464644    5.64006519640617   -1.95805968306639
C         1.73399688776376    4.09638293912434   -1.62376891229337
C         2.18620385090229    3.07962959871677   -0.80637273390539
H         3.06471005836910    2.51737288183813   -1.08487557967376
C         1.49244816141984    2.80868073164847    0.36193765790720
H         1.85736032111167    2.01149548617079    1.00179005088248

