74
CSD_code = OKAKUI | q = 0 | S = 0 | Stoichiometry = C25H37CrO6P5 | MND = 6
Cr        1.42995460804300    2.16885586616447    5.41614463940956
P         2.53196199486693    0.21001489669426    4.52379721472406
P         3.98876495217935   -1.11809120598173    1.94434448383452
P         3.95829076290056   -3.84771116416081    3.15101895150666
P         3.35736789849614   -1.77524533085721    4.85756898299512
P         1.42692584750130   -0.20551603304359    2.74237735425366
H         2.07361436695205    0.72965574500780    1.91634836603905
O        -0.02440154627171   -0.01583075752265    2.77169889170213
O        -1.19393677189314    0.70803857059594    5.63799414116277
O         0.75946347612146    3.04416413933147    2.60971236499668
O        -0.21647363902967    4.50693631938966    6.31263360875973
O         3.67040197179981    4.17347193296422    5.53970731805157
O         1.94901151779797    1.59960723319049    8.33151988128994
C         4.08243563158573   -0.49073132938815    3.73319970642092
C         4.79842289794592   -2.75126459332241    2.16748324985913
C         2.47091098821626   -2.73511841610340    3.47240537432216
C         2.24000122402430   -1.80202660645029    2.25061816406136
C        -0.15674478760729    1.16850124872244    5.49529870696914
C         1.04070957035745    2.65631593997755    3.65186171300998
C         0.41826380655707    3.60910634287842    5.97384842689535
C         2.88633031979445    3.33780952392283    5.44273492960291
C         1.78489538133731    1.74796677397333    7.20429328823672
C         5.33017421091756    0.29922318193938    4.13139266449577
C         6.58759472669817   -0.49047249924744    3.79484228241055
H         6.56719038421611   -1.45143111612122    4.30576270393290
H         6.63732110393832   -0.64998093163386    2.72099734402844
H         7.47716569081504    0.05392579260945    4.10444279208055
C         5.31337804052622    1.60933722622745    3.34173609151040
H         4.40290935477092    2.17241639683446    3.55845310276819
H         6.17117697561583    2.22576973333215    3.59960004256312
H         5.34296987840486    1.40202118425495    2.27105459426626
C         5.33070207101498    0.58590187514058    5.63462666008781
H         5.25488259767132   -0.34663373843179    6.19732411272555
H         6.25823926581571    1.07973019171180    5.91695529799346
H         4.50275209395527    1.23692452074210    5.92149337158007
C         6.02379335781479   -3.19560825724447    1.38338473194381
C         6.36610144023907   -2.17240559914447    0.30022742190589
H         5.53764246762275   -2.06716649486922   -0.40004726636471
H         6.57127631340661   -1.19199014373334    0.72760023127165
H         7.24518476427820   -2.49130402698498   -0.25518919562108
C         7.23430415699249   -3.43403583540446    2.30002756060980
H         6.92845448778624   -4.00267577839195    3.17703998157562
H         7.98806582988412   -4.00859525436212    1.76620378734120
H         7.69209300422129   -2.50691787141188    2.62428071171223
C         5.73277619846965   -4.54639271062840    0.70649337625658
H         4.88852924322470   -4.48451470434269    0.02668951166084
H         6.60187193766823   -4.86820217970504    0.13642596674548
H         5.51649468096427   -5.30249424807948    1.46019157696035
C         1.34984061678957   -3.56827387631945    4.16441366947539
C         0.10745003751806   -2.70946283807491    4.37974260718490
H         0.38492573644822   -1.77643635508731    4.88143399758044
H        -0.39194913881145   -2.45669322044533    3.45340092691090
H        -0.60177068195744   -3.23234898699310    5.01855719696191
C         1.82503342649146   -4.02181493389017    5.55648928765082
H         2.83712257890636   -4.43194078611885    5.51591937355566
H         1.80219112703330   -3.20393782682376    6.27838426559784
H         1.16174778459677   -4.80180406252964    5.92553173633228
C         1.04000556982150   -4.86630527065952    3.40699553114456
H         1.86050145669318   -5.57241737616694    3.54129777758348
H         0.13486928163182   -5.31750780214150    3.80828629734885
H         0.90324157407858   -4.71993094334693    2.34352695426847
C         1.58998727615285   -2.24022185065712    0.89803060441536
C         2.33978329677951   -3.41017046640435    0.26080041152780
H         2.45740178469760   -4.24921486376206    0.94426148341010
H         1.80131311877443   -3.75819888273583   -0.61876751311056
H         3.32780927967668   -3.07767495295493   -0.05197195968158
C         0.09089710778424   -2.56565136621743    0.95825217348631
H        -0.46852659448533   -1.73253048754132    1.37055697731644
H        -0.26364024985738   -2.72680273899063   -0.05912765480890
H        -0.13775367546909   -3.45915284336106    1.52430463429148
C         1.68613639896729   -1.05599159334051   -0.07827945388683
H         1.02903484223169   -0.24394318551458    0.23540059404575
H         2.70718376090045   -0.68169389912349   -0.16897286701865
H         1.36334953633948   -1.37751640079357   -1.06708626582288

