62
CSD_code = OKALAN | q = 0 | S = 0 | Stoichiometry = C21H32ClF3NO2PPd | MND = 4
Pd        2.12062038318057    4.55948395300817    3.15061277803188
Cl        0.72191106957894    6.36369407413918    3.48272222167695
P         3.61607023578831    5.98819386288568    4.01964090699773
F         3.85143586838953    4.60432740616655    0.98738803095847
F         5.54575462463944    3.41562282261030    1.60819693598133
F         3.91900323400859    2.51297644776104    0.51482189092614
O         5.70658285550353    0.95987345571748    4.12267549112708
O         4.72532927580698    0.47981041896663    2.15221243364604
N         0.53125150778653    3.21546599139841    2.59830931411385
C         2.75997356537021    1.77123502937881    4.63616733418814
C         3.24557218614602    1.52678356601426    5.91682402138317
C         2.37627115560532    1.27109626548774    6.96035649113016
C         1.01210493760827    1.23162639943562    6.72716636072325
C         0.52388464580082    1.42680966477067    5.44707729578978
C         1.37796103649985    1.70609509625380    4.38575250521532
C         0.82957055028106    1.81904360333248    2.98106843411803
C        -0.73025328017468    3.61243775492770    3.22692612047068
C         0.40681615480362    3.34569234246588    1.14450496458091
C         3.11322984490277    6.26968346489713    5.76666982751909
C         2.73431063526601    4.92964730172044    6.38955796742007
C         3.68916309011354    7.66966493441604    3.27618854830914
C         3.58885999114965    7.57041513613502    1.75747703757579
C         5.38606092205641    5.45233574730218    4.09916308373315
C         6.27666425755442    6.22732704394286    5.06193405093084
C         3.44035011678754    3.12800377774526    2.75425063586958
C         4.20039695670777    3.38806933410627    1.50650064181978
C         3.67347331826997    2.05470918358410    3.51448761356232
C         4.82186759216415    1.11534672416793    3.31840377604502
C         5.79582801209793   -0.39015709521924    1.77535616839244
C         6.80627659801031    0.34706869660881    0.90999589863040
H         4.31264363860231    1.53820843676901    6.07928519610562
H         2.76223392889037    1.09551488074784    7.95321683678539
H         0.32793460430453    1.02775066800788    7.53709691448675
H        -0.53867312951245    1.34089221434099    5.26731625756323
H        -0.08909729985950    1.21785526205294    2.89802919677129
H         1.56710424672908    1.41749202137847    2.27985383554959
H        -0.99529882699149    4.62616154919541    2.92769190503447
H        -1.54001612829336    2.93064631024432    2.93184972462798
H        -0.62001877992229    3.59798212421841    4.31263780316503
H         0.24510631820042    4.39881614631905    0.89154755429484
H         1.31878796570811    3.00073134405915    0.65167160252040
H        -0.43992399985113    2.75645529317643    0.76555634775665
H         3.90974834358310    6.76656356067036    6.32431655592123
H         2.23912562998811    6.92544454819918    5.74144293590969
H         2.34909665569829    5.06175525778785    7.39872920905111
H         1.95249491032722    4.45313940007357    5.77756775055635
H         3.59355647228046    4.26111647161518    6.42935387573937
H         2.83634924214653    8.23031785125664    3.66533833910479
H         4.61240563021662    8.16966273754729    3.58038767293752
H         4.46822100398685    7.08839210880967    1.33543336794952
H         2.70805905147612    6.97744443542293    1.48990591984182
H         3.48818702414797    8.55852173861575    1.31361178046692
H         5.39840532022037    4.38886725504575    4.35391038768230
H         5.77141056851552    5.54403712322445    3.07937987226115
H         6.02818487541443    5.99853012146764    6.09510252665704
H         7.31579298966256    5.94822705902192    4.89957508233169
H         6.18899057058547    7.30158999985239    4.91296009106041
H         6.27039895085771   -0.77615555685936    2.68355091080559
H         5.32390491738366   -1.20592864888427    1.22319076305836
H         7.58269089665550   -0.34063874812511    0.58706269493654
H         6.31168601046182    0.76594154085186    0.03720016903705
H         7.26056705668212    1.15758308977812    1.47511813917315

