90
CSD_code = OKAMES | q = 1 | S = 0 | Stoichiometry = C40H47P2Pd(1+) | MND = 5
Pd        6.80715879190804    3.09436654910272    8.60147832888473
P         7.61005092477606    4.29586649023074    6.79207946725357
P         6.80768545286705    1.27548803431255    7.20297738843236
C         6.21426324456605    2.31270670871446   10.45251405657383
C         5.44304811720675    3.50006766721574   10.23308691691854
C         6.62543775090988    4.32136963479949   10.30447827637891
C         7.36242390660207    3.15463926440743   10.89273584324168
C         5.92925862321851    0.90075566439708   10.85089767034641
H         6.86109669404825    0.34000707578304   10.91896188902177
H         5.26792137041323    0.38925740430193   10.15413292057924
H         5.46271824075842    0.89503116988869   11.83819543279418
C         3.98495071942467    3.68851359389059    9.88627705502449
C         3.27804529635109    2.32748977308253    9.84220627616327
H         2.23041276448146    2.47051952346354    9.58798010397301
H         3.32330856795346    1.82821563726602   10.80576145838240
H         3.72569663465634    1.68746978344805    9.08071273132475
C         3.88066638163084    4.30609498104267    8.47864812706138
H         2.84422949034761    4.28749757879934    8.14811256897717
H         4.47956542672776    3.70887423350765    7.76547259465259
H         4.22429397469596    5.33652877348954    8.46585018907784
C         3.29636847232414    4.57140642926413   10.93223114529151
H         2.24654299246455    4.69318336246715   10.67764791985486
H         3.75021618256627    5.55633310878524   10.98795449180033
H         3.35929279729601    4.10960426775475   11.91543980267783
C         6.97836593010407    5.77872810899335   10.47430663445506
C         8.43925826078509    5.99018377854943   10.05066094581168
H         8.71184905737656    7.03551952684899   10.17231677144778
H         8.56380128000489    5.72482554894080    8.99668178162038
H         9.12153589370097    5.39084521818200   10.64465745530793
C         6.81739416643981    6.11940119469355   11.96494575256832
H         7.09254079455726    7.15722432527826   12.13454157078338
H         7.45449734928936    5.48711591158743   12.57781912442425
H         5.78775877027675    5.97814067419119   12.28504407869914
C         6.11743070275389    6.72170099682294    9.63085714955739
H         6.50014192508891    7.73612694656972    9.71670604420521
H         5.08384099612450    6.73099254482176    9.96338370198479
H         6.16194689797570    6.43462352676544    8.57950227396738
C         8.45713852136539    2.89801045412775   11.60105010994197
H         8.65818295746490    1.89900127672378   11.95472757257783
H         9.15639299516677    3.65719084918931   11.90562378982562
C         7.01721768610676    3.34220018655420    5.31410482073995
H         5.94509955209953    3.53595281717619    5.20614346154348
H         7.51550348876193    3.71641725595832    4.41442029225613
C         7.27994289421385    1.85037388809210    5.49832664356127
H         8.35300398042440    1.65442771524375    5.39710480437516
H         6.74914268297717    1.26250820546224    4.74390793738944
C         7.41805481098952    6.00726434721257    6.21050949890408
C         6.15819643762649    6.42994370103582    5.79010285543718
H         5.32942942059018    5.73381942813489    5.78825431522422
C         5.96434465006214    7.73675654065248    5.38539128636339
H         4.98905282450198    8.05778764853377    5.05240224950206
C         7.02036170273685    8.63442831479529    5.41254637265365
H         6.86806641169618    9.65466161936549    5.09632719016645
C         8.26753938119335    8.22465735638464    5.85422645722191
H         9.08759744381260    8.92570210416315    5.88552249298804
C         8.46864323208964    6.91735500477555    6.26030492048652
H         9.44118043740505    6.60214196891262    6.61164862436087
C         9.39066295373592    3.94418023597702    6.73780170923056
C         9.95666275467243    3.36914190058609    7.87278918864391
H         9.33587460256502    3.22306657019657    8.76346515871251
C        11.29185441854112    3.00899503204533    7.87815643932493
H        11.72907080171769    2.56133447768285    8.75768507933106
C        12.06744657365559    3.22760882571376    6.75103901068970
H        13.10965960724739    2.94801754969849    6.75141368411568
C        11.51071844277748    3.81048791625636    5.62260641357347
H        12.12053499930431    3.98552083953013    4.74932286961179
C        10.17499351446718    4.16842911705537    5.61015356201328
H         9.74335577734546    4.62793181179436    4.73168117599616
C         8.06294536331181    0.01495249652554    7.54112549564762
C         8.86553417527342    0.18514216781043    8.66398591806512
H         8.69536124537264    1.04407365639752    9.31111267685885
C         9.86233366026286   -0.73072525336154    8.94822606393537
H        10.48612729150313   -0.60121295450745    9.81993569644199
C        10.05670161472853   -1.81722419100421    8.11108990964523
H        10.83216581116827   -2.53464064818375    8.33129901646724
C         9.25709641507712   -1.98916791563893    6.99059723641863
H         9.41198937379215   -2.83884304914542    6.34325844232739
C         8.26059578661145   -1.07630872404619    6.69991665483265
H         7.63098977227303   -1.20834037789110    5.83103059186366
C         5.26373797227282    0.35274802988312    6.95668429646405
C         4.22499440397515    0.94606988251107    6.24153228434743
H         4.37467973841856    1.91222291962626    5.77716113713770
C         3.00786404458539    0.30261440960092    6.12157860599932
H         2.20929326665729    0.76212791427697    5.55904517231384
C         2.81245572666693   -0.92918874732095    6.72664921743432
H         1.86164608459912   -1.43036408675077    6.63335924323022
C         3.83585060283003   -1.51499780981823    7.45392730362742
H         3.68266688650295   -2.47227662505601    7.92849400140080
C         5.05705138578284   -0.87632729339648    7.57712843849102
H         5.85637857834220   -1.33306377119269    8.14464667076241

