104
CSD_code = OKAMIY | q = 0 | S = 0 | Stoichiometry = C59H37N3O4Zn | MND = 5
Zn        5.83537017944770    2.54534123600373    0.33137617164764
C         5.98252341822729   -2.02057487692459    1.57235383882740
H         5.96347867746425   -3.06708934530796    1.84009437166012
N         5.99409673875365    0.61358766022855    0.88107127925383
O         4.36317166219974    3.49707189349171   -0.57554900477592
C         3.60982676329156    2.55008349033762   -0.93336112451239
O         3.84739120662828    1.36650301892799   -0.67844754201627
C         2.36970570167769    2.93214422503259   -1.73476186449894
H         2.65390664662663    3.04508775375108   -2.77956304669733
H         1.97984766001399    3.88116316936917   -1.37860940901325
H         1.61459646540316    2.15513578840616   -1.65289165970219
O         7.13744894601912    3.99265855253420    0.58534304156364
C         7.99274545462612    3.48252955034901    1.36526768900993
O         7.93455450832433    2.31665838965911    1.75795211132804
C         9.12069445065601    4.39923957457462    1.82331071271219
H         8.71037839417884    5.13875100323626    2.50790028990429
H         9.53825260601407    4.91928268238868    0.96565861781875
H         9.88949047539610    3.82222229798710    2.32857495126510
C         5.58758647516443   -1.06228874666375    2.49123767708147
H         5.24634094419483   -1.34995005392619    3.47278997308790
C         5.62021598353494    0.27598050282233    2.10056459546080
C         5.27042561235901    1.41018523731939    2.96422911208816
N         5.05596951161238    2.55975477999676    2.35170965746576
C         4.73285168547031    3.65184536780379    3.05556037998988
C         4.61493000682659    4.88909924590863    2.36744819677092
H         4.72023189260052    4.87880345342305    1.29478684268166
C         4.45438182646073    6.03414027719629    3.07375060554321
H         4.45934636262241    6.99174010420897    2.57384979583043
C         4.25074401650443    6.02215269628699    4.48170601668769
C         4.17813851635722    7.23510227927490    5.20694857796275
H         4.26877859067817    8.16619069863367    4.66738107397470
C         4.08468450347726    7.21712603361944    6.56263346335288
H         4.14915439599551    8.13072570709930    7.13563899169665
C         3.85043965082732    6.00501765447370    7.25448242307391
C         3.76044601962256    5.98879085302839    8.66682137464224
H         3.90698357080262    6.91514980591939    9.20282258255435
C         3.54919986250820    4.82264276744561    9.33045895646261
H         3.57216282965204    4.78481039776646   10.40984217748527
C         3.20462739388598    3.64809344739233    8.61938904689948
C         2.89114788295273    2.45220433042363    9.31996203873024
H         3.00857989108224    2.44697855456140   10.39413034001791
C         2.48021222203454    1.34316913630292    8.65984645228701
H         2.29399156126122    0.41864706809072    9.18711064849483
C         2.20263278114848    1.39824982867359    7.26723616958079
C         1.61294701465403    0.30754283601013    6.60512538513973
H         1.44375214851623   -0.60375183117036    7.16141672901335
C         1.23075987094278    0.40365094232919    5.29324711250012
H         0.78177759095135   -0.43956199824480    4.78948924570417
C         1.37680431720437    1.61888030927129    4.61886068995797
H         1.00982851539674    1.71822780745964    3.60834620692232
C         1.97713079235805    2.68645459668604    5.23489273931475
H         2.04332131808754    3.62763558668464    4.71148045904896
C         2.46949594337544    2.58886955618877    6.54868580048776
C         3.15182364630350    3.66952852901530    7.21262719143271
C         3.70895047431507    4.79916816124354    6.52924059322555
C         4.14165121879637    4.79487729351855    5.16344547022505
C         4.56060273652390    3.61059203884947    4.46653610359803
C         4.92533543398527    2.41609941891501    5.10744211614047
H         4.97546638958277    2.37431290529099    6.18469663105109
C         5.26420767389403    1.31489282492134    4.36426005203122
H         5.56769038558588    0.40195159679346    4.85010881401415
C         6.40235856351805   -1.63647182089515    0.30927461636911
H         6.71674103555309   -2.37909030103260   -0.40566577160810
C         6.38949527536027   -0.27820033885499   -0.00939008193062
C         6.75345025468739    0.28820068084960   -1.31373858707213
N         6.66895165331825    1.60259640990570   -1.41675532772862
C         6.85538036961040    2.20582391124620   -2.59617829801526
C         6.87385425947036    3.62544493995351   -2.64643243491779
H         6.72183093293842    4.16216119607571   -1.72400829302319
C         7.12997113512925    4.24979181709108   -3.82174539051902
H         7.22827058177636    5.32488009201221   -3.86134741233444
C         7.23709481588913    3.52960212387123   -5.04466273933474
C         7.54973414327371    4.19971057412643   -6.25068617071139
H         7.70047304784106    5.26873349217583   -6.22500699954232
C         7.73236928359599    3.49351599421640   -7.39760345158664
H         8.08143994808596    3.97880408364273   -8.29745697024441
C         7.42091510220137    2.11436859797162   -7.45670534807765
C         7.61411198482180    1.38524403407555   -8.65409053275263
H         8.03000965075628    1.89849517649044   -9.50881797145894
C         7.33119717573587    0.05788661400676   -8.70418365482742
H         7.56221645053669   -0.52677390391865   -9.58282424226223
C         6.64969372491771   -0.57079123321250   -7.63443801727944
C         6.28787969155661   -1.94176920558404   -7.72602828019109
H         6.60906700105123   -2.49519114954032   -8.59681804869886
C         5.58824271443531   -2.54607157000154   -6.73602867836312
H         5.36595620291509   -3.60278661802526   -6.77708497792180
C         5.06227407863868   -1.78394515753526   -5.65850561670046
C         4.21937446354282   -2.37363219361107   -4.70037209335123
H         4.03329280555433   -3.43692894819101   -4.76246645550433
C         3.63381820348853   -1.61833870218578   -3.71915875434269
H         3.00657931264199   -2.07945740135470   -2.97105121717731
C         3.80814439626266   -0.23155214140908   -3.71508062518837
H         3.30490026680832    0.36744854523899   -2.97273190053920
C         4.63485696357860    0.36201043455611   -4.63412355735447
H         4.72151880163761    1.43777783533225   -4.64670476984990
C         5.35338448080270   -0.40049858304099   -5.57368059794924
C         6.31834601269301    0.16642413015269   -6.48126125133974
C         6.91696515324244    1.45790793572907   -6.30966045732326
C         7.04738960225133    2.13454334995192   -5.05435277107737
C         7.05672435989972    1.45863938255437   -3.78823033053376
C         7.32812857156452    0.09083054087301   -3.62861800519846
H         7.66665889507454   -0.49382431241800   -4.47064819096831
C         7.18213019899907   -0.49565871105950   -2.39794193150423
H         7.38827901924156   -1.54568766520093   -2.27244634354844

