69
CSD_code = OKAPIZ | q = 0 | S = 0 | Stoichiometry = C14H30B20N2PtS2 | MND = 4
Pt        0.74283038354619    3.69163242867375    0.74365240574184
S        -1.36257834680867    4.03738531867450   -0.20542098700816
S         0.78910785379513    1.50979572836124   -0.07208896099921
N         0.85183837822621    5.58272580884343    1.62130104345714
N         2.59967812293147    3.57502407749092    1.68901184692846
C        -0.09111232372451    6.51832144637873    1.59102246450140
H        -0.90155527306663    6.35544467507496    0.89090492746425
C        -0.05554862647651    7.64168554068704    2.39483561377934
H        -0.84294493346748    8.37459340165556    2.33571206051603
C         1.00313160801835    7.78930553974145    3.28308793410903
H         1.05154180247536    8.63767971310081    3.94784020587668
C         1.99885606825437    6.83199669702378    3.29803983671886
H         2.82707524704817    6.92514184015130    3.98097500986112
C         1.91398182136333    5.73416412779498    2.44031341223503
C         2.93711472757715    4.69212151210320    2.36598584092760
C         4.20892314416511    4.82526685265988    2.92572732381259
H         4.48742328087006    5.73460337464201    3.43212673858034
C         5.11747709490605    3.79106035118535    2.81132268379734
H         6.10563939900448    3.88342071194389    3.23450787715195
C         4.73487710259231    2.63239249719853    2.14598198599383
H         5.40543536222936    1.79480191074937    2.04925690748968
C         3.46931209880107    2.57555864556327    1.59453738890382
H         3.12831302454289    1.69592218727660    1.06226948967043
C        -2.47414191596412    3.31125429379850    1.01282305392480
C        -2.52867679623354    1.72192642022569    1.14894821443999
H        -1.82449984216730    1.17459287178297    0.53442430924347
C         1.25180815484924    1.71035775463365   -1.80233930902035
C         0.20145475089931    2.36368124287000   -2.80778506989361
H        -0.71927596073782    2.71530390955509   -2.35974825647580
B        -3.82747652277598    2.47085043751704    0.33966975757053
H        -3.84810449285506    2.38385768794142   -0.83073501657239
B        -4.02612438591505    3.98458750493635    1.22249655394829
H        -4.27137629945345    4.96367914263398    0.61917545963234
B        -2.81803123078104    4.05704159620821    2.51534841136637
H        -2.28539796465493    5.08354277673957    2.74751896899845
B        -1.84822185922562    2.59658132586925    2.45339590950535
H        -0.66981321037375    2.57379538295144    2.56561986518545
B        -4.09924597950894    1.13387544220915    1.45088683568839
H        -4.39201957562677    0.08821434276844    1.00093337555100
B        -5.10669685234796    2.60079202913272    1.53468590638599
H        -6.23737271329446    2.61137537648761    1.21135543641969
B        -4.48672275061036    3.58795444084073    2.89230994054432
H        -5.18876912935665    4.29987811877023    3.51341103363030
B        -3.12063193758342    2.71945013698610    3.65136826412513
H        -2.86117192594925    2.81237576327564    4.79576947922773
B        -2.88623112820455    1.20818857929982    2.73351615659718
H        -2.39009720927573    0.21278513869837    3.11404882983158
B        -4.53112132627620    1.81018385431876    3.03517384224833
H        -5.26955308057979    1.25397416847396    3.76294134594692
B         0.40900620187474    0.67516746736906   -2.90096004210074
H        -0.43434083863922    0.00721935052902   -2.43119802829914
B         2.12941675366467    0.46918389853808   -2.57387014698927
H         2.47487020002167   -0.43751407976359   -1.90959298630485
B         2.85618562667145    2.05952111928040   -2.29293611337559
H         3.67073203232518    2.17635968986613   -1.44888367961007
B         1.60199263022693    3.27676651338664   -2.43196811470104
H         1.47228750662996    4.18464204861354   -1.68299164883548
B         0.22714212519518    1.65140300607471   -4.35367648906005
H        -0.78649107700835    1.58365425910349   -4.94470651968268
B         1.50702116370759    0.41759300185791   -4.24484973359945
H         1.47851118382335   -0.58062463158248   -4.86590996368635
B         3.03327295673394    1.27503505463777   -3.87473026746428
H         4.07674949784954    0.86478619197697   -4.23271279380110
B         2.69508474361650    3.02799144295014   -3.77957491469687
H         3.48772870498027    3.84765401809338   -4.07102841575162
B         0.94765696267066    3.23976794250359   -4.06195744548512
H         0.40099333549958    4.20011059635849   -4.46242985537039
B         1.84668230172738    2.01418331112472   -4.98312599818197
H         2.04789215565363    2.13075567319052   -6.13651319055095

