47
CSD_code = OKAPAR | q = 0 | S = 0 | Stoichiometry = C22H21AuNPS | MND = 2
Au        2.21092765937246    1.44879231230729    9.22870388961539
S        -0.05025000089432    1.70535118930151    9.75753959668374
P         4.37654248823756    0.91739351800508    8.76845300381990
C        -0.18502221023762    0.06718563767536    9.93522631278355
N        -0.25554225393981   -1.07773868522991   10.04981265661383
C         5.62212012944562    2.09116255082683    9.38323903495003
C         5.53263935816074    2.56996177164328   10.69818706589691
C         6.45873584312961    3.51353575056304   11.12274755320820
H         6.39822191366026    3.88800424368752   12.13445583060498
C         7.45116799371731    3.97962070897766   10.27869571707534
H         8.15773970763214    4.71492164947637   10.63306485113442
C         7.53820383132977    3.49830935889724    8.98362304591819
H         8.31366119516967    3.85059264327010    8.32038928278788
C         6.62562046528272    2.56111663232848    8.53814858878079
H         6.69416638105759    2.18445966589785    7.52718400071430
C         4.47338424660024    2.08583512786208   11.63538161451344
H         4.74108072705320    2.30679407788658   12.66607735506151
H         4.32165967450512    1.01057536547262   11.53690543117552
H         3.52317535988437    2.58015603457706   11.41898790495812
C         4.76813724157194    0.74759120264180    7.00167136706981
C         5.40314298934837   -0.39867177373348    6.52894920570882
H         5.70357070186141   -1.16958339528877    7.22466052958835
C         5.65533445791209   -0.55446769200171    5.17911997882821
H         6.15184409771054   -1.44502169733367    4.82471948883931
C         5.26782687133966    0.43298657147854    4.28965210859811
H         5.45830934080077    0.31676553318166    3.23339054322553
C         4.63663304858713    1.57332219063865    4.75503284850250
H         4.33851633097433    2.34231676934980    4.05699793816274
C         4.37512459498596    1.75231957797538    6.10657530925479
C         3.68766745855089    2.99155241858645    6.58358978716349
H         3.73453098056018    3.77338224304878    5.82916585010794
H         4.14227456480556    3.36322608589650    7.50260186366980
H         2.63556887266317    2.78156745534894    6.79122127555326
C         4.86315128631330   -0.67645701922149    9.49362129517290
C         6.02421316800792   -0.76913704143351   10.26095973633437
H         6.66701262043645    0.09398215255642   10.36618539064112
C         6.36353528169166   -1.95492185871128   10.88225744050520
H         7.26786117508621   -2.01499379423903   11.46890257744302
C         5.53675776986411   -3.05861921317745   10.75084233851979
H         5.78907626234070   -3.98645202539898   11.24170917331251
C         4.39017704491080   -2.97389145337770    9.98318165395289
H         3.75011545157610   -3.83734417721597    9.87627248184804
C         4.03164492760681   -1.79483508902100    9.33970791591690
C         2.79349915830376   -1.76561711199621    8.50470098552121
H         2.64536191718859   -2.72716919066375    8.01634298646425
H         1.91249210177591   -1.58143701369101    9.12637060354562
H         2.84678777405907   -0.99352220762233    7.73627459025325

