52
CSD_code = OKAQIB | q = 1 | S = 0 | Stoichiometry = C20H24N4O3Re(1+) | MND = 6
Re        0.47582378594792    6.38510101927942    7.10322358011418
O        -1.60522404593039    8.25775073075425    5.77928010915496
O        -0.87397454452924    6.56677075380254    9.88027204477581
O         2.30386663280337    8.80659540091403    7.72072448173426
N         1.81141255667449    4.85196425567012    7.79688526766314
N        -0.56038058486427    4.54804924481043    6.67458142381746
N         1.32546079342809    5.95835365814482    5.09393663979729
H         0.61330478951831    5.54998398036758    4.48887543304505
N         2.61403879854886    5.91797726679510    3.16633573124585
H         3.52046547298434    6.11534235259490    2.77050416287004
C         2.95647490167150    5.06541308902127    8.43956255738798
H         3.17958452028609    6.09467778413906    8.69282760291309
C         3.84286934644872    4.06013271220500    8.80482563063043
C         3.49484463288281    2.75479279298296    8.46109596427777
H         4.14956310298185    1.93428885546595    8.71164418323750
C         2.30030819963562    2.51895281852959    7.81264027356061
H         2.02176027107218    1.50953188892152    7.56059996528440
C         1.46173760014116    3.58787331660746    7.49581403885308
C         0.14501065884788    3.41888993962051    6.86770997381936
C        -0.38528544655050    2.17759625397396    6.51517637593442
H         0.18518005383458    1.27545936752443    6.65908568614535
C        -1.65544130898826    2.10366578956697    5.98079972583162
H        -2.07575977943252    1.14779840418609    5.70797233745508
C        -2.39731781784191    3.27078651365330    5.80552278119688
C        -1.78657431464338    4.46536177431296    6.16799062348047
H        -2.31979327564676    5.40032328061684    6.04871260757967
C         5.10151397866779    4.36456190670559    9.53979107368911
H         5.27653504142001    5.43510271008575    9.59776287534281
H         5.95187069115453    3.88849146099529    9.05513889031109
H         5.04148173027312    3.96963156902486   10.55352412895641
C        -3.78331561249046    3.24059092500542    5.26239250390940
H        -3.81469464522818    2.68692406451263    4.32554780496744
H        -4.16449823033990    4.24418970036514    5.09612483386571
H        -4.44376036242074    2.73130707381598    5.96340578871650
C        -0.82717531578257    7.59522331291575    6.28952063410700
C        -0.37141172627087    6.53254149519858    8.85822769928771
C         1.61602054375882    7.92433779812924    7.48223636705990
C         2.42568506496125    6.19750759082986    4.46237890759982
C         3.58831897659807    6.83102163513276    5.15901861088803
H         3.56517608352877    7.90636661315205    4.98598005377057
H         4.53070959246192    6.44170482568398    4.78097637290181
H         3.53340734597730    6.66022076767591    6.22967463768760
C         1.63964986883206    5.35504021716182    2.24193281445015
H         0.65526153944527    5.78371830745665    2.47390744018580
C         1.58354444787241    3.83170455936248    2.38278004199273
H         2.54429755001843    3.39555129088432    2.11992778655679
H         0.82726531336155    3.42408619802487    1.71831151836271
H         1.34221295811304    3.53724709514467    3.40301775696517
C         2.02436266421827    5.76390142277516    0.82618000910922
H         2.07242540464038    6.84663975825979    0.74008707499387
H         1.28584751590374    5.39751981785492    0.11943977620714
H         2.99121458200014    5.34413463936492    0.55691539634417

