56
CSD_code = OKARAU | q = 1 | S = 0 | Stoichiometry = C24H24N4O3Re(1+) | MND = 6
Re        1.40100766131060   12.49854631105791    8.06686182406382
O        -1.59912881804378   12.27558233992757    7.33361682522143
O         1.85104706656302    9.44284366324593    7.89501288339902
O         0.70554464494214   12.28099757375371   11.07578978016574
N         3.51078697224480   12.86651745956656    8.29333473030759
N         2.12780711009914   12.68811372132906    6.03731756690852
N         1.27266631768541   14.68801130770001    7.90716845844527
H         1.14913934176604   14.95352005183522    6.92995332519741
N         1.14503179762852   16.97070937150986    8.24541318931604
H         1.10784858126091   17.71163152980687    8.92611288603620
C         4.15027909569932   12.96122455270479    9.45516186510603
H         3.57884541826510   12.70752118391871   10.33946233961378
C         5.48114902687461   13.33967135809481    9.58265773413264
C         6.16617907537866   13.64654935046408    8.40843315638946
H         7.19713278612188   13.96353524572395    8.44842136311379
C         5.51983458313639   13.52801458017005    7.19521850393202
H         6.04469056582483   13.75766643758323    6.28332758536395
C         4.18740615704641   13.11857384724171    7.15857382419996
C         3.44528317297697   12.92066839039522    5.90792721679244
C         4.05089375658369   12.92390304368215    4.65269286309109
H         5.11345668474729   13.07029305257047    4.55845768323097
C         3.28516285402252   12.70867564990663    3.52510621739638
H         3.74576513459768   12.69617221590322    2.54914380044253
C         1.91373498045137   12.50321379734338    3.65475722607822
C         1.39618663188814   12.49956700092506    4.94469343288282
H         0.33932680330131   12.32160488874498    5.09958291168016
C         6.14440271704362   13.39939730852075   10.91474260864149
H         6.80173929074497   12.53821841332480   11.03501012414936
H         5.41587879906828   13.38468156410214   11.72061880460895
H         6.75838100637458   14.29331694187348   11.00027355606029
C         1.04192057067175   12.26060532257522    2.47217746876613
H         1.32842197419174   12.90264706357385    1.64234265888417
H        -0.00453185180457   12.42708576112351    2.71240336498956
H         1.15289551879500   11.22783330020102    2.14102215633080
C        -0.49915495656752   12.33949908529310    7.63483516242812
C         1.66098148531570   10.56292697676682    7.98493164313863
C         0.94298207302252   12.37232643090120    9.96005397505769
C         1.27153901134998   15.71006415374679    8.69160532309695
C         1.41330023098497   15.55474446126622   10.17151174224909
H         0.42676862760928   15.41630057626152   10.61272628805892
H         1.87145440818337   16.43365763776358   10.61823088624546
H         2.01030320322516   14.67924379822197   10.40719610165405
C         0.90625523396710   17.32457862754663    6.85853011113413
H         0.85487132719850   18.41468967947283    6.80376469682367
H        -0.06486176526265   16.93118723684552    6.52891510191698
C         1.99798791481621   16.83918204367211    5.93033729603899
C         3.32903753922449   16.86203707881264    6.32953793057055
H         3.58639239394699   17.20828761217910    7.32029990195674
C         4.32671869488184   16.45753713737871    5.46074889374540
H         5.35791179414581   16.49410821566105    5.77859104335509
C         4.00595384784267   16.03311985319428    4.18243112154024
H         4.78599302234942   15.74308333750894    3.49540212024373
C         2.68113184806182   15.99895143001669    3.78120462299758
H         2.42416757962026   15.67420464572884    2.78456018316372
C         1.68143707028756   16.39234989560605    4.65276133652652
H         0.64904398837813   16.36990648581985    4.33363458312641

