75
CSD_code = OKAYAA | q = 0 | S = 0 | Stoichiometry = C19H48CrN4Si3 | MND = 5
C         6.14317261778205    7.74325229367215    3.27044133948956
H         5.39795986238132    8.20386698837341    3.92611784515795
H         5.60793234892888    7.25384885742226    2.44429464202279
C         7.02396647579690    8.85461502627128    2.67983625590232
H         6.42233234191618    9.51386628738888    2.03741691357296
H         7.41612422468028    9.45466182991431    3.50390015411787
C         8.26243247266443    6.58625774044223    0.21575634677984
H         8.01890526045581    6.36916323230300   -0.83176356804013
H         9.34240035846474    6.44578964098787    0.34641740306283
C         7.91611886730296    8.05528573289011    0.53360069808249
H         8.51117455558188    8.74132152219846   -0.08475990949996
H         6.86021279109691    8.20688607273180    0.30395154431558
C         9.85021615121101    8.24737561851667    3.64777615606960
H        10.82431494191524    8.65799584154685    3.93167785157385
H         9.12602084953658    8.53567594214325    4.42256634394896
C         9.42221773039958    8.84056335570599    2.30001895851071
H         9.39014065228268    9.94248489717816    2.33574969042304
H        10.15831088785668    8.53526779157036    1.55208084001043
C         8.13481984912846    4.06047475764882    3.37201586671554
H         8.49568816982655    3.97241886093799    4.40125177137958
H         7.08693964365105    3.75591136016885    3.40417321303614
C         8.87903948839541    3.04822628530744    2.51494260366777
H         8.63427128182134    3.21575539157129    1.46126996248551
H         9.95714638522580    3.17110771230450    2.63736429058200
C         8.51870287836543    1.59913090594306    2.86816533655247
H         7.44300991915410    1.45621965317621    2.73847957288230
H         8.75046595989115    1.41886752516527    3.92065875927128
C         9.27105923017181    0.59323418008198    2.00477756054318
H         8.99493680373273   -0.42607515405953    2.26759275310474
H        10.34493041911215    0.70355876131960    2.14045745925546
H         9.04339874728125    0.74955220356340    0.95216479938824
C         5.84560455202195    7.93592176172543    6.49557259083463
H         6.39626546220821    8.84782297784930    6.28577531923809
H         5.84488095017782    7.79535330397414    7.57132282133332
H         4.81494779021726    8.09319415111213    6.19373688671250
C         8.28541588071891    6.01809539185952    6.47527730381185
H         9.09510205017905    6.09659541136137    5.75467382884517
H         8.29214919882773    5.01119441971399    6.87725792732689
H         8.49173578091795    6.69585581831999    7.29758653001409
C         5.38248801779402    4.96619972121672    5.88329565325905
H         4.42323771147497    5.16653417255115    5.41486193638310
H         5.20084083072588    4.80174982599012    6.94114277757571
H         5.76567430785601    4.04075192613388    5.46728690061755
C         5.06197200651901    6.24436534100128   -0.53257377718176
H         4.66381374480118    7.08608553133335    0.02727922602275
H         4.21720330387646    5.72307851471219   -0.97210016548259
H         5.65379513078921    6.64139291550160   -1.35200467800010
C         4.92640209312250    4.50285016986179    1.99993466031433
H         4.96694169724047    3.42935437569042    2.14510146553420
H         3.89462877814398    4.75807240847212    1.78021552113155
H         5.20400829775869    4.97631656768294    2.93479957035677
C         6.47893487978373    3.53536553263587   -0.55095811404855
H         6.82802753230913    2.68611802307651    0.02750152405696
H         7.24744281500879    3.77194294472504   -1.28197128292688
H         5.59571268802700    3.21730733916511   -1.09597554297346
C        12.86507382185558    7.16771455869233    3.69583919109941
H        12.83770972133558    7.62280377862464    4.68090677985204
H        12.90626953630372    7.96569172830453    2.96043539281492
H        13.79495746580776    6.61336169085691    3.62354554432359
C        11.62610160525345    5.26481695902159    1.65184866368398
H        11.98435183655326    6.01727205323156    0.95353421114333
H        10.69730560706492    4.85809685079742    1.26153339512576
H        12.35843754769821    4.46385643687718    1.66099528195191
C        11.55418352986096    4.62208414938071    4.73980090412347
H        11.66427570866256    5.04484549186652    5.73393374689009
H        12.43457795572036    4.01854658486099    4.54208683631979
H        10.69663962192729    3.96112685579126    4.75913026408324
Cr        8.28546573632530    6.04349198800835    2.84078543565275
N         6.93724818453947    6.75762956478736    3.96036201373195
N         7.55203777866767    5.75552461530318    1.15208500095589
N         9.85792984685451    6.81149960967499    3.53738528851000
N         8.13657013021707    8.26484569995452    1.95162055312531
Si        6.62074782342208    6.40917173490461    5.62405801958328
Si        6.07715349846004    5.03935378160493    0.57673017404542
Si       11.37527537696085    5.99128620740664    3.41485096585909

