51
CSD_code = OKEBEL | q = 0 | S = 0 | Stoichiometry = C21H17HgN3O7S2 | MND = 4
Hg       -6.66962805858140    7.96676323043670    3.75164000525333
N        -5.91733296284228    6.03447980069623    4.15900453191661
S        -6.63426184020551    5.89592086889430    5.62462437130551
O        -7.66549779583306    6.93011261214773    5.61417666241858
O        -5.75050873667516    5.87440612947903    6.73634534330791
C        -8.09206581546402    3.43858354134274    6.12699618066894
H        -8.37661707044665    3.73376768254078    7.12417720664817
C        -8.46184643416435    2.20612037029195    5.59833871606149
H        -9.04936431741342    1.52661083209426    6.19685878893406
C        -8.08123492598659    1.83905589826459    4.31515475285129
H        -8.37594510612238    0.87470755244403    3.92914265920821
C        -7.32402931744485    2.69202583228102    3.52547657663357
H        -7.01532944831963    2.42297277563799    2.52738606177609
C        -6.95426613102092    3.91831746990368    4.05367669156067
C        -7.34550539044601    4.27746417456280    5.33270089574113
C        -6.19213992234740    4.99606237023719    3.36044694660258
O        -5.90854445589421    4.94314799939830    2.16531874939820
N        -5.90042079207853    9.76504536003050    4.19914777602033
S        -6.89209060688509   10.70788543028752    3.29473208825029
O        -6.33669715310956   11.04100740596629    2.01652443163330
O        -8.16048891762864   10.00054490347001    3.22680630399429
C        -5.94831317954812   12.59937647866915    6.54998690834780
H        -5.34839959429249   12.29634015759595    7.39383706456024
C        -6.53566758392774   13.85407245978623    6.47850115974251
H        -6.39444222487872   14.55696878566404    7.28593411543504
C        -7.30352163846018   14.22018027312706    5.38179349411559
H        -7.75200384529996   15.20144658913022    5.34583409826014
C        -7.50328524491019   13.33766078949306    4.32595298700634
H        -8.09645245317338   13.60818847525022    3.46710610610542
C        -6.91666627551013   12.09620065453654    4.41205437184367
C        -6.14353965765793   11.71944146738322    5.49700210904196
C        -5.61349088220894   10.32003059855736    5.40994989299444
O        -5.01858822597597    9.76524798302021    6.30470850594699
N        -8.24693664409536    7.01491983763122    2.31728174957588
C        -9.03474326206090    6.07143165512367    2.83756404045080
H        -9.18874838928508    6.11788985445514    3.90882662856670
C        -9.63541380225306    5.08562384522869    2.07800456697362
H       -10.26445963611117    4.34671826975781    2.54849429403629
C        -9.39817848862404    5.06608442916544    0.71133262665021
H        -9.82337969972797    4.29413656799286    0.08744080442962
C        -8.62059059700935    6.06797113142102    0.16458163477548
H        -8.43185851806504    6.10215468402720   -0.89731842683930
C        -8.07072261331344    7.04747442810290    0.98950467484783
C        -7.27141566325940    8.17451025702292    0.41816551717111
H        -7.43182396884676    9.06711018493956    1.02538635034786
H        -7.58491472292883    8.37515669847878   -0.60670075240381
C        -5.75674724734035    7.87871740909286    0.41549441721387
H        -5.53225166852834    7.08680660622784   -0.30808624432893
H        -5.23783107765334    8.79752076658321    0.12653510358517
O        -5.26863840479957    7.51459721776007    1.68780755295274
H        -5.31315959134473    6.52951920437676    1.76404890841431

