83
CSD_code = OKEHER | q = 0 | S = 0 | Stoichiometry = C27H45ClN6Si3Zr | MND = 7
Zr        6.97368129090639    4.44184751655677    2.55856846756829
Cl        9.36154841718031    4.48000771222968    2.43255759963122
Si        8.39277989710932    2.52440801399615    5.11700850428204
N         5.65220569840770    5.22080042085915    4.27677112997508
C         6.44746751386680    4.52972972830115    5.14748598021913
Si        8.17284512263184    7.71714603723370    2.86733642517540
N         7.29334519447246    3.71092801031054    4.53266820309325
C         6.31427664352147    4.73213417364610    6.54272423727471
H         6.95469760793482    4.18141763332557    7.21101767698612
Si        8.07731636990614    3.16476120921380   -0.50448751285717
N         5.48228664533730    5.43867700033805    1.12029838921293
C         5.39097592964220    5.63567685477928    6.99874225230096
H         5.27877569830905    5.81172328235899    8.05927676930179
N         7.11706472195031    6.53601901119619    2.19746401006002
C         4.59081017683793    6.33426281919309    6.09135338546898
H         3.85908254994434    7.04628503338731    6.43765115744652
N         5.61260728530862    2.58599284697120    2.50849648496570
C         4.75592278574286    6.09617984859559    4.73819271178918
N         7.11154527387161    3.09249073703047    0.91667401457364
C         3.92813869454124    6.80826642693516    3.70837658264559
H         4.51712767521740    7.60636975720535    3.25469976286217
H         3.03713740407592    7.24146915236717    4.15673425064345
H         3.64315207599677    6.11763500202960    2.91466069428857
C        10.05873365657697    3.28292894190251    5.68074957149989
H         9.92026474113258    4.00288311425049    6.48306263308213
H        10.53839377753683    3.79563624736070    4.85197349123634
H        10.73776495394233    2.51661776779731    6.04012490179550
C         7.69974251896551    1.46859824591396    6.56618621008456
H         6.65564399631575    1.21000709362514    6.41667777146629
H         7.77991204937824    1.97861764566894    7.52033173923676
H         8.25594874046053    0.54124789678875    6.65059381041402
C         8.60439417728510    1.34591736166355    3.62422082567441
H         7.74550083095009    0.68787436695390    3.50919162722256
H         9.48121559660260    0.71784028388882    3.74172257871575
H         8.72361487874781    1.91508441319930    2.70227345964665
C         6.19426330841649    6.59864616396933    1.24442209343081
C         5.90933757205625    7.69899080831275    0.39972161535129
H         6.48452405646358    8.60262018100140    0.51168370865188
C         4.92555884484005    7.57442754047342   -0.54543817021773
H         4.69669406079213    8.39939391917358   -1.20525030302495
C         4.21467699124337    6.37711218663968   -0.66010434321668
H         3.43813778630374    6.26716028641857   -1.39981914535171
C         4.52718365275368    5.33365792460664    0.19327008336909
C         3.80381196302264    4.02019318452617    0.12919083834550
H         4.43504451808612    3.28015956553178   -0.36436642587807
H         2.87316236485014    4.11443755937860   -0.42530653727679
H         3.59785646269794    3.65717341934795    1.13626550924700
C         9.76661137207351    7.95029482434648    1.83090072203481
H        10.31580066925816    7.01529586808372    1.76882280125570
H        10.41885114095071    8.69417117345882    2.27679421136355
H         9.54275121841090    8.27359319956453    0.81769527775831
C         7.35906054305266    9.44361275021699    3.09755346858901
H         6.31890688037472    9.36582266610555    3.39937190379778
H         7.39565123418872   10.03546084688873    2.18906809661460
H         7.88042233810650   10.00374337243194    3.86601771048916
C         8.54655039136135    7.03256401685178    4.61467815200753
H         7.71168165146900    7.19084376098089    5.29423540911140
H         9.41516245767629    7.51679307402872    5.04841048890258
H         8.75010656096721    5.96277193950828    4.56855936519537
C         6.29380108027352    2.16470934902045    1.40099799428732
C         6.08639389384742    0.85819030982862    0.89574914925269
H         6.63609316671170    0.54472189920691    0.02418444169078
C         5.20985986348690    0.02663501820087    1.54160104977005
H         5.04293719042684   -0.97739860614966    1.17777754954095
C         4.52864143965220    0.47526612919451    2.67580250312545
H         3.83563922181754   -0.16930899545194    3.19213855386899
C         4.76103207785678    1.76325364807809    3.12530965782973
C         4.06084167582158    2.31321382007609    4.33361924603524
H         3.19131726855711    1.71149691109171    4.58736530507836
H         3.75560274320692    3.34383334305056    4.15198835108617
H         4.74611848043111    2.31788419470727    5.18213741690501
C         8.29213622398619    5.04402952356846   -0.79491265938437
H         7.39398906529279    5.48936619995761   -1.21797528245155
H         9.10822492072723    5.24403871602551   -1.48129209612058
H         8.51447721643378    5.55199908260703    0.14352044361196
C         7.21664286784908    2.45093083151307   -2.06793639491295
H         6.16880946057356    2.73149515698808   -2.11903873313739
H         7.27033694694712    1.36803218065555   -2.10682311514061
H         7.69873637434889    2.82804117344589   -2.96335720624040
C         9.75868938374660    2.27094366215333   -0.29782215697000
H        10.32834064758714    2.72180979460951    0.50961373526897
H        10.35137399965191    2.33618026569165   -1.20445555023607
H         9.62723616073922    1.21741455299747   -0.06554853027745

