92
CSD_code = OKELUL | q = 0 | S = 0 | Stoichiometry = C30H46BN11NiO3 | MND = 6
Ni        0.44382665383364    2.63245706499597   -3.37139898993121
O         2.22541109607132    2.43875988372061   -1.71504311050301
O         1.36394614402693    0.98998316613129   -3.01159811552228
O         2.76647084675049    0.37363249389807   -1.52300221269374
N        -0.38269311502500    4.23332658705072   -3.71386315518644
N        -1.13047965603050    4.33933883311526   -4.81819189200156
N         1.35018322300252    2.94464292034553   -5.05548450516378
N         0.55396117907554    3.10618562387357   -6.12471660693103
N        -1.26699109058433    1.45548055904347   -4.47866617049464
N        -1.61928056301213    2.01897620601653   -5.65089252459421
N        -0.66546314410416    2.42868453297473   -1.70275446776104
N        -1.98914131646270    2.31875703885109   -1.85706973396586
H        -2.36096982245467    2.21626658170122   -2.79529026457045
N        -1.49422690304954    3.98811263146365   -7.26215317053919
N        -2.52304925430819    3.53258894420549   -7.99030053674055
N         2.14571375542126    1.25597774524922   -2.05238505849403
C        -1.80167295244641    5.49948142185037   -4.78169793998916
H        -2.47062053954521    5.78465621736264   -5.56826930603007
C        -1.45940673660930    6.16436812031810   -3.62469795397602
H        -1.81233620544427    7.12032811845630   -3.29766901027924
C        -0.54305699051798    5.32784654851066   -2.97701703362247
C         0.25364473266550    5.57472677709045   -1.73630152397932
H         0.83339632734578    4.66728130602629   -1.52698057131718
C         1.23938887314324    6.71867669477072   -1.99145798371715
H         1.88985865501262    6.47471554626230   -2.82762243884234
H         1.85657320247293    6.87944468516389   -1.11154700553545
H         0.70950560507829    7.64143387911281   -2.21892542188656
C        -0.65348943580097    5.89706314984346   -0.54934287101994
H        -1.36993973895210    5.09695936197765   -0.37922655543417
H        -1.20196159552928    6.81932441456236   -0.72838091312105
H        -0.05763937364066    6.02107687142038    0.35107265807842
C         1.29580894029160    3.06721286152162   -7.23948085539089
H         0.85174036358294    3.16194381934100   -8.20986362409698
C         2.61301245546902    2.90094643003463   -6.87874979322668
H         3.46073662163983    2.83637990922182   -7.52837418139113
C         2.60699253365507    2.83655750491483   -5.48063840390108
C         3.77920927434645    2.72892865168648   -4.56022106929611
H         3.43487969323235    2.97171283057897   -3.54926898872972
C         4.85830169956875    3.74251263841198   -4.94533479750032
H         4.45147581825197    4.75143363071318   -4.95588197784358
H         5.26368809602100    3.52168685450659   -5.92992624394209
H         5.67083874533964    3.70588474077713   -4.22406217772550
C         4.34047136061127    1.30445196244176   -4.58658710555994
H         3.56016208179672    0.57844477364500   -4.37212270109533
H         5.12622218563345    1.19616600029946   -3.84309400056026
H         4.75449049608302    1.08053678349865   -5.56783075613930
C        -2.35244338912289    1.15581107628575   -6.37474526561426
H        -2.72748874388801    1.44339615738697   -7.33475166202664
C        -2.48798455408143   -0.00184488641051   -5.64461860127284
H        -3.01571100949880   -0.88891726164132   -5.92841329608686
C        -1.77857811611455    0.22944022220007   -4.45678549462054
C        -1.55313247156503   -0.70185611819921   -3.30946659263302
H        -1.04268064030631   -0.14426832328356   -2.51860996797728
C        -2.87605580663051   -1.25386015846424   -2.77743989482467
H        -3.54813753022429   -0.44755650417262   -2.48893889932132
H        -2.69662605851261   -1.88192795230864   -1.90769046763895
H        -3.37013227016448   -1.85492915256662   -3.53702667531142
C        -0.62325406375381   -1.83319577552397   -3.75206402749480
H         0.32985670087459   -1.41549207582612   -4.06456542264271
H        -1.05689847734674   -2.38669264866341   -4.58216920647622
H        -0.44666668190227   -2.51914824826098   -2.92698510449661
C        -1.01337025832954    5.13371377973724   -7.80717680468738
H        -0.18817044116014    5.65656810111540   -7.36480708745452
C        -1.75805550059197    5.41682482386393   -8.92219912629589
H        -1.65242622464544    6.24738302500363   -9.59009367691846
C        -2.70122665753198    4.37145690758922   -8.99298387212643
C        -3.74540109930163    4.16649480112070  -10.04476839602213
H        -4.18901755655173    5.14294077154156  -10.27683373403868
C        -3.08571503671002    3.62240833014763  -11.31642158113156
H        -2.31467666987385    4.30326418411903  -11.67038030284596
H        -3.82664604734804    3.49761378089777  -12.10307358043816
H        -2.62728997660076    2.65680715727713  -11.11408985184324
C        -4.83920980451258    3.21962860382559   -9.55989312861100
H        -5.29992947348473    3.60408006450273   -8.65360713461735
H        -4.41378692606129    2.24519184600817   -9.33712290704916
H        -5.60539683752387    3.10440881913896  -10.32341490945393
C        -0.44058430272858    2.40539652856482   -0.39789950368053
H         0.54967518123261    2.49640590394348    0.00390708240932
C        -1.64508854876186    2.26855116125084    0.29361732050941
H        -1.77133630126560    2.21995405393759    1.35459196729345
C        -2.62567085071629    2.20506678651230   -0.67906562392027
C        -4.11167278900730    2.10286976956489   -0.58054881882708
H        -4.50364097107999    1.85151050045848   -1.57305493880974
C        -4.68802649103660    3.45889729365052   -0.15925970137414
H        -4.41181386771129    4.23195195998667   -0.87319749319151
H        -4.30918380293459    3.74136122679789    0.81993252948924
H        -5.77236961230864    3.40517912102947   -0.10904123297846
C        -4.51609398952603    1.00717328497262    0.40564167352861
H        -4.07775451491411    0.05430816097761    0.11953608883828
H        -5.59770987331179    0.90056459107812    0.42212522765986
H        -4.17927381386210    1.25512771880457    1.40848544088224
B        -0.97449605550112    3.34628527508730   -6.00522228367174

