71
CSD_code = OKELOF | q = 0 | S = 0 | Stoichiometry = C24H36BClN8Ni | MND = 4
Ni        7.88779967825998   13.72476175739834    3.20429101898984
Cl        9.42301848866256   14.95502944518763    3.56500076714920
N         7.87725408110816   12.59474775313118    0.61142666606088
N         7.88114561401583   13.79521360091505    1.21060193550295
N         6.31256388446879   11.64447788023372    2.27329394363381
N         6.36713883867800   12.70805122706064    3.07354741131644
N         8.68964041748780   10.99515646784593    2.37559556446228
N         8.90841800398528   11.82564605212860    3.41802205311487
N         7.21025833851890   10.18652231576499    0.44624243246104
N         7.83553040606959    9.00411278504415    0.36926865925830
C         8.09609372167857   12.76324058082030   -0.69976999961390
H         8.14510232963574   11.92937712569667   -1.37043759283525
C         8.22879441725327   14.11198209524243   -0.95174670594288
H         8.40479612457718   14.57554653574596   -1.89943129489078
C         8.08216594519047   14.73545880212930    0.29194126256648
C         8.08496184609314   16.18758585309263    0.65941130975470
H         8.99685080374957   16.38197551141980    1.23621214581207
C         8.07773244200877   17.08192102903137   -0.57632932025521
H         8.96419369612250   16.91028223860500   -1.18113832249296
H         8.06680917151994   18.12684754126465   -0.27637454641723
H         7.19613746644024   16.88865379561939   -1.18411658257176
C         6.88495531049098   16.48753278754224    1.56510377078653
H         6.91466994552898   15.83900277521678    2.45387241664669
H         5.95184605462331   16.31093424678609    1.03294175529433
H         6.91293698909171   17.52144445430746    1.89838976945066
C         5.13553695214343   11.02793048838512    2.44644226798059
H         4.88368985038616   10.13779196772855    1.90630569375076
C         4.40946684864133   11.73182941510194    3.38582471169408
H         3.42770109980630   11.50729340190402    3.74822023098156
C         5.23506046400185   12.79641061878650    3.76090824971711
C         5.04205400012724   13.91549166926639    4.73514826979642
H         5.97613266934692   14.51087293429940    4.72437511044987
C         3.88208516274309   14.81314364705215    4.30454928236207
H         4.04917536633907   15.19896163869263    3.30140200453723
H         3.78367619972755   15.65408633647625    4.98680406965431
H         2.95022082552767   14.25201271968588    4.30968294528455
C         4.82633779721620   13.37078903426441    6.14673417826739
H         5.66035823089313   12.73859084931947    6.44340465065998
H         3.91331730585679   12.78090804808087    6.18833424729206
H         4.74263988651292   14.18944452967543    6.85764413056420
C         9.57326991807491    9.98555019650433    2.41936823315088
H         9.54484398963900    9.21786679039906    1.67348769362282
C        10.37872418187024   10.16455891522887    3.52042126208249
H        11.18243437206100    9.53676251224375    3.84517896318274
C         9.92201339025338   11.34292334412720    4.12450822832659
C        10.40456320782897   12.02510049799336    5.36255530809432
H         9.71249196328217   12.85184535661996    5.56949814415879
C        10.39783395473323   11.05828776214445    6.54683006243425
H         9.40542219215340   10.63682061484070    6.69325367958683
H        10.69134267796305   11.57791740068564    7.45605913171098
H        11.09633892063928   10.24254171374312    6.37574794368393
C        11.80060814066840   12.60622754294123    5.13288942611763
H        11.77198476906945   13.33239447076585    4.32470992815198
H        12.50391274569644   11.81786556071313    4.87367030059261
H        12.15106569588768   13.10550744851223    6.03307672728329
C         6.21324295885269   10.24232604669479   -0.47286265833200
H         5.59540199333326   11.11329716136647   -0.57068143530260
C         6.20422867429093    9.05654771797584   -1.16000720340523
H         5.55124730430978    8.76231971677378   -1.95634885294635
C         7.25296427660473    8.30832863995528   -0.58846686896739
C         7.66899039315786    6.91535973347538   -0.94158658616465
H         7.54427217742506    6.78870127646050   -2.02394596236580
C         6.75266246313587    5.91546793799564   -0.22858190854964
H         5.71362193451083    6.08372413320805   -0.50387621333024
H         6.84806827990686    6.02888129365545    0.84899834963475
H         7.02268586467532    4.89656214736286   -0.49749862356516
C         9.12776562886983    6.66536925199415   -0.56966903077716
H         9.77585184339129    7.37822765102279   -1.07330696817283
H         9.42440018103902    5.65860660947242   -0.85586540124104
H         9.25917717473794    6.78119247723398    0.50247132088723
B         7.55010205741021   11.29405612193859    1.40177445017692

