40
CSD_code = OKEMEW | q = 0 | S = 0 | Stoichiometry = C11H20BrO3P2ReS2 | MND = 6
Re        6.23661183563829    1.89501350995173    8.30332471409796
Br        6.63628152154062    3.36101927760283    6.53842722852677
S         3.95708919640395    4.06144350809660    9.18334934009544
S         3.66431469105823    0.71343402780681    6.57801541539468
P         2.27586993818984    3.42340475486721    8.41891163733213
P         2.51891151039574    2.29236240859877    6.44556428124824
C         7.06094089287635    0.15500222961206    8.00795128069880
C         7.25866310991024    2.32375852284289    9.90542536157227
C         4.87521017697388    1.06711375155828    9.40117378444793
C         1.05273588034226    4.80029442699413    8.18853552557267
H         0.27019497874682    4.47656625065547    7.49832702795176
H         0.60241205378921    4.93015411905773    9.17786674857921
C         1.69642926431529    6.10035835396390    7.73701759510798
H         0.97444283612758    6.91244792218272    7.79111007657841
H         2.06080896552745    6.03297066672183    6.71469166478324
H         2.53852734862520    6.34257593137419    8.38330234477754
C         1.35692926640331    2.17296292407889    9.42838846742588
H         0.31368484516645    2.17259226646017    9.09991056650205
H         1.79713590672418    1.19397255671309    9.21387967619491
C         1.46650628389208    2.48697281857377   10.91298951544707
H         0.96515500045309    1.71735013718201   11.49497002757957
H         1.01427440842481    3.44959254086616   11.14804451124964
H         2.51248138260426    2.51679145045929   11.21341680269555
C         0.83848171493771    1.88596129298134    5.77305568755177
H         0.14918842321662    2.70125352907809    6.00386174899201
H         0.97997860481492    1.85638926945106    4.68808433448165
C         0.31094476966621    0.54859816443794    6.26301464322164
H        -0.57820842981769    0.27022763042621    5.70127893216464
H         0.05360342661373    0.58245277860511    7.31885191234315
H         1.06581545979046   -0.22297438016481    6.12110467762201
C         3.12631264487537    3.64531522558774    5.33753059490240
H         2.28326720562034    4.30235169023218    5.10507793687866
H         3.87023211496600    4.21888225168916    5.90077666354707
C         3.74780296344795    3.07555903036627    4.07124069972504
H         4.15857267083893    3.87834929812479    3.46341106871044
H         3.01364932142296    2.53032785572297    3.47980677348227
H         4.55655800335822    2.39144811304245    4.32246495492768
O         7.56213842993520   -0.83160473382952    7.71096192885639
O         7.88130348758514    2.69226564133003   10.79404624718113
O         4.03064789459707    0.60884298669882   10.02933760155183

