55
CSD_code = OKEMIA | q = 0 | S = 0 | Stoichiometry = C23H28IN2Rh | MND = 8
I        -3.59526792392581   -1.79584550253853   -3.12101706358226
Rh       -1.29402019201254   -2.85235303071093   -3.91035479130860
N        -2.12952037224780   -3.42638242399791   -5.63380808006324
N        -2.06891719313591   -4.70311221538966   -3.40564934393376
C         0.87970744987800   -3.13453126899411   -3.85467020750618
C         0.49344433098915   -2.65127662582038   -2.55111498833285
C        -0.10776348551179   -1.38375529289234   -2.72043907749278
C        -0.09105087342474   -1.05324892286735   -4.13369100581231
C         0.58585417086668   -2.10653586352489   -4.81177061518821
C         1.73593487133541   -4.33159464598433   -4.12139962400394
C         0.88087922305646   -3.26271609625455   -1.24110903345204
C        -0.49219554276811   -0.44020583911131   -1.62722150251559
C        -0.44939035930391    0.29172703173921   -4.68776234164155
C         1.04170750983496   -2.12023692635338   -6.23636931874736
C        -2.32321661375195   -2.90188765278265   -6.83945902167012
C        -3.02929409779345   -3.80338998800097   -7.64193868471299
C        -3.28347072125763   -4.92453495274728   -6.87161768255111
C        -2.72259971225525   -4.66744110263839   -5.61207113920153
C        -2.69061772803480   -5.31335659831369   -4.37079868112683
C        -2.05690033975572   -5.22934374619549   -2.05685631756591
C        -3.39821156348851   -5.85471597400510   -1.64320005053369
C        -0.94002234174707   -6.23385150059165   -1.84211833662664
C        -0.47832436522778   -6.45668730583801   -0.54884552852125
C         0.51978175294803   -7.38174613819824   -0.30531473751402
C         1.07581160389763   -8.09610868685126   -1.35400506818723
C         0.62277122832371   -7.88076937945817   -2.64310037072936
C        -0.38115734580911   -6.95737922365073   -2.88610657695543
H         1.54929640086874   -5.12346223973793   -3.39866512589125
H         1.55918439773906   -4.72559323234419   -5.12028316641632
H         2.78779377344501   -4.04537630176251   -4.05078954200027
H         0.14939804773623   -3.04006119429632   -0.46643143443083
H         0.98924765580261   -4.34213297858677   -1.31830462143119
H         1.83936328124189   -2.84585563863763   -0.92435021145526
H        -1.27370858159157    0.24311718033599   -1.94917581379314
H        -0.84640060493822   -0.97221157719915   -0.74706534194043
H         0.38330380376028    0.14781000492818   -1.34373638212045
H        -0.56991643138899    0.25564658841727   -5.76809307826275
H        -1.37873927189313    0.65752680568182   -4.25503771517069
H         0.34083774314671    1.00752206838347   -4.45233443706564
H         0.81751887367435   -3.06980304108099   -6.72021275036961
H         0.57579162775678   -1.32339837774839   -6.81013191519610
H         2.12330218596612   -1.97425428926915   -6.26317895966464
H        -1.97721399569143   -1.91754175049221   -7.10188031455873
H        -3.31331969703076   -3.64017093722110   -8.66357924737672
H        -3.81123715477613   -5.81287115566647   -7.15915114830166
H        -3.20023275727760   -6.25873580422489   -4.22180148162634
H        -1.87868760449381   -4.37123469342386   -1.39271239087831
H        -4.21241754714370   -5.18421599513993   -1.90950845040578
H        -3.55238586895827   -6.81911761290189   -2.12137623759645
H        -3.40830333125072   -6.00752417708672   -0.56740735214154
H        -0.90390341009447   -5.89705372434837    0.27204473982184
H         0.86760849658089   -7.54302542886087    0.70436021240121
H         1.85838440450624   -8.81593978557162   -1.16634815978675
H         1.05109477936414   -8.43226508681886   -3.46735354858630
H        -0.71991058475297   -6.79739775334100   -3.89978693628836

