63
CSD_code = OKEPEA | q = 0 | S = 0 | Stoichiometry = C21H36Cl2IrN2P | MND = 8
C        10.40933399889079    4.05968188389456   12.56185679108356
C        11.73818376393747    3.72769078607578   12.18932513819693
C        11.91327630313559    2.31510312778678   12.39973257894234
C        10.70962255377187    1.80677208939846   12.98783006748100
C         9.76733316899035    2.86315611692508   13.05022456208925
C         9.81072661489160    5.42410064311995   12.66029989582216
H         9.74540379981399    5.71924546118011   13.70901068139142
H         8.80256069364926    5.43360248759384   12.24775071378121
H        10.40712223497275    6.16303376878108   12.13074653890931
C        12.83734610647219    4.70837257100527   11.93229278909131
H        12.45636564567686    5.63405074823982   11.50977296882495
H        13.59627580742242    4.31106482865454   11.26283212517311
H        13.32219310956835    4.94572870641848   12.88203765496956
C        13.21658054179813    1.57907346081504   12.42536604027390
H        14.01211592761933    2.15167317967404   11.95664738118433
H        13.14294162436665    0.61469688515734   11.92536060821879
H        13.50041109455009    1.39197260280249   13.46292329419230
C        10.54119098671959    0.43591083268937   13.54892656859562
H        10.81493039954013    0.44030889738095   14.60610720611993
H        11.17452632426392   -0.27958295068212   13.03039596373371
H         9.51052273772214    0.10058749976242   13.46214384805298
C         8.44004310472843    2.82906069018343   13.73249695493518
H         8.04733848570822    1.81563945504847   13.76714116796820
H         7.71935720605528    3.45829098880361   13.21360616704076
H         8.54093874775336    3.19793467417230   14.75532995412234
C        10.72215502810952    4.32611525324289    7.78886939282049
C        11.28977393140130    5.31194265669711    8.80530264452642
H        12.31991586024620    5.07278424844276    9.05498463211648
H        10.68745124176170    5.28470106279473    9.71123147156372
H        11.25985806272034    6.32322497832006    8.40227750717860
C         9.26397505089636    4.69231933817023    7.50246238467062
H         8.63572522958739    4.53321799130249    8.37481669408292
H         8.87234617767241    4.10549018158709    6.67519122634302
H         9.20461709415923    5.74417941093967    7.22691990814746
C        11.49223128677434    4.39186165985990    6.47533194770168
H        11.27042767742640    5.33812291710890    5.98267655143079
H        11.18327921847351    3.58387071387274    5.81746582339701
H        12.56573621692286    4.34621459321046    6.63386466487056
C        12.37078385822116    1.68136032998120    8.18185593682859
C        12.69532161119548    1.45521377230508    6.70630757310594
H        13.14403369396015    2.32767194447828    6.24515926485201
H        11.80149730668419    1.17872031424406    6.15443292709970
H        13.41349149591234    0.63977927306808    6.63294221731952
C        12.20201011480096    0.31005448621969    8.83908507350245
H        13.11803615534422   -0.27008715673007    8.73840796172557
H        11.39049997932963   -0.23782275800174    8.36524255162089
H        11.96904337728490    0.40603190181648    9.89674301296013
C        13.51115279356327    2.43287053146041    8.86328099777168
H        13.24414800910598    2.64830240211060    9.89321284098515
H        13.73389719011418    3.36705716812648    8.35261192378539
H        14.41383545401274    1.82334600358932    8.85817934563580
C         9.55251406774131    1.76344765806825    7.50295263214019
C         7.64489704744870    0.98842146356289    6.77972318204213
H         6.61489559711471    0.69836317171540    6.79423509906155
C         8.59208747075774    0.92215346590139    5.79231639544916
H         8.50373085831449    0.55623200093398    4.78879372644704
N         8.26618995200948    1.52853792818143    7.85339429850707
H         7.86725219348961    1.73942222436285    8.76195322470944
N         9.76639894328652    1.41080012238423    6.24873299130143
P        10.74913672784822    2.59039714125201    8.57406196317610
Cl        9.35071381682634    0.36754556006152   10.45277501478536
Cl        8.02394337969524    3.35689568998797   10.37043199173228
Ir       10.17445584762567    2.52597092073050   10.89141534440591

