57
CSD_code = OKEPIE | q = 0 | S = 0 | Stoichiometry = C19H32Cl2IrN2P | MND = 8
C         9.68421122356258    0.84441210508931   30.04061247790852
C         9.00546609512907    0.85129759426833   28.76273476811290
C         8.76781544986489    2.21566800270583   28.39642056638806
C         9.43203820644062    3.03427536643642   29.34923430243808
C         9.96263840309615    2.18007733687364   30.39142252268183
C         9.93189127084092   -0.38965956688551   30.84350728623639
H        10.42327607918584   -0.15514933154701   31.78409736344711
H        10.56434578193010   -1.08644132451531   30.29297995494534
H         8.98471975196789   -0.88698118434640   31.05591698178840
C         8.38516712800712   -0.36216646831211   28.15124654994790
H         7.47235048441202   -0.62204506798002   28.69146833344455
H         9.06557286776002   -1.20891098014696   28.21194756313864
H         8.13257890879184   -0.19556274920278   27.10739491308689
C         7.87425412969645    2.71581756865585   27.30955917073894
H         7.03584840776173    3.25241292680982   27.75636250808218
H         7.47646660538427    1.89296253404248   26.72143121084845
H         8.39114956516423    3.40489706801375   26.64066839396442
C         9.36635998629206    4.52362151180077   29.42676048566858
H         9.12301293318465    4.95336825064969   28.45781464914961
H        10.31689894573386    4.93356445958714   29.76328730515820
H         8.59779196438856    4.82413567907283   30.14157142628126
C        10.55914395520867    2.69152358458881   31.66061330432974
H        11.02640781508947    1.89118618633291   32.22882949913220
H         9.78169750368939    3.15055582727604   32.27414945884051
H        11.31514520034866    3.44780346753311   31.45322692393709
C        10.46977677962855    1.40778929704880   24.98845825332749
H         9.47676176986963    1.74835737428351   25.30300896592928
C        10.53022911753604   -0.11343540387497   25.10796912256504
H         9.62849408925617   -0.55880107503467   24.69150551106120
H        10.62449525328581   -0.41610158335804   26.14874080480699
H        11.38166144434907   -0.51479863798680   24.56691960045036
C        10.68321645956050    1.87637867319710   23.55406583154380
H        11.64013024476507    1.54195566187416   23.16313704925023
H        10.62121176991606    2.95969875824568   23.49922607919869
H         9.90088653420783    1.45608670988024   22.92375659162312
C        13.35683906206756    2.20264238323772   25.73330624440161
H        13.89412840842733    2.43198719361386   26.66174705501209
C        13.79158727408597    0.81488453146263   25.27068606246030
H        13.39194950227091    0.58261141270304   24.28695882676636
H        13.46711450922973    0.05959784202513   25.98216168317436
H        14.87775247382071    0.77948143353664   25.20924762696489
C        13.70169424505417    3.26957031824282   24.69569740113397
H        14.76111246818903    3.19412960064139   24.45573320700245
H        13.51476373228148    4.27128052314158   25.07380821176696
H        13.13544653765807    3.13713491288541   23.77833915095999
C        11.10233153522185    3.95764350945506   26.06296285217414
C        11.03447721301733    6.09455985021881   26.49766619314242
H        11.28882375456293    7.03297567937783   26.94525556256929
C        10.09917550655300    5.76684048172960   25.55172123969254
H         9.39973660739910    6.39989070881936   25.04306410547672
N        11.66712664712527    4.93669326576537   26.81306402590932
H        12.34127562845365    4.74560571116872   27.55597698541562
N        10.14269162803298    4.43739895449817   25.29718113086109
P        11.55605852004179    2.22897909209996   26.25003997395952
Cl       12.35804893158956   -0.16424778567480   28.26721461255073
Cl       12.86055373841674    3.15855346179617   28.95086956466978
Ir       10.99919995122542    1.74979434816129   28.44335255449397

