59
CSD_code = OKEPOK | q = 0 | S = 0 | Stoichiometry = C25H28Cl2IrN2P | MND = 8
Ir        2.19951018983104    8.54659645908536    3.41574207479104
P         3.19612486339540    7.37726330370099    5.12055579350042
Cl        4.41607554509317    9.30329242435311    2.98996518136617
Cl        1.94581075131432   10.16463562460078    5.11153834329111
N         4.93527735629918    9.37960409818081    6.03662357530992
H         4.96899760471715    9.83335495000067    5.12822778258267
N         4.33694228735092    7.89376047840349    7.55770287973250
C         0.93805598005114    6.95411709582663    2.43887219861551
C         1.69959024917966    7.62980116195982    1.44331405670472
C         1.27610544831721    9.01384483275304    1.41356830517963
C         0.28286064541309    9.18676567927796    2.39984643068676
C         0.11943056719427    7.93122110456071    3.09393977513866
C         0.90004451244069    5.47880021515082    2.66925934419735
H         0.22715844682334    5.01633877070075    1.94451432456783
H         0.53389394765999    5.25126516815121    3.66756073602834
H         1.88549787929412    5.03126214899979    2.55306012982511
C         2.57484453291729    7.00725863869813    0.40417426090224
H         2.06941242194435    7.03699507299091   -0.56283252783838
H         2.79665165412049    5.97010948156757    0.64341172275573
H         3.51169357553342    7.55419821258120    0.30397783679652
C         1.72701285224660    9.99871949107221    0.38459603459929
H         1.26819141542055    9.76614876568317   -0.57861824193045
H         2.80819813836727    9.95862988904880    0.26249335548980
H         1.45543983235414   11.01321345818669    0.66481705692653
C        -0.53324773611660   10.40459246772935    2.67520554285326
H        -1.59340355265898   10.16200881745557    2.59866068889254
H        -0.30218634545689   11.19992780045366    1.97156006035340
H        -0.34251827614097   10.77399014728010    3.68331613305707
C        -0.93893717088124    7.66973737357088    4.11446986454735
H        -1.90040423616413    7.50671318095276    3.62333410478410
H        -1.03693469088557    8.52176150650545    4.78347472662059
H        -0.70389399622885    6.79216337000562    4.71266756703874
C         4.19251668699156    8.28276561785929    6.30701196909335
C         5.57620802449992    9.71131573396908    7.18242601557218
H         6.23082408226655   10.55508630105347    7.25414500994291
C         5.19438997837448    8.77889613430982    8.11268516352626
H         5.48187203462441    8.69496124829883    9.14167357328104
C         1.98848204516275    6.56285869140586    6.19795516935091
C         1.24757741689545    7.35174934699591    7.07293002193074
H         1.45032302802399    8.41066003358313    7.12869917299506
C         0.26237931154180    6.77732483084303    7.85365146190970
H        -0.30683455701808    7.38926776139786    8.53738076732605
C         0.00063064607565    5.41929805903837    7.75788740820802
H        -0.77133886106094    4.97203759775053    8.36683841741817
C         0.72886614847580    4.63427064945578    6.87934241886624
H         0.52587580649502    3.57557628699760    6.80266551318841
C         1.71868412520054    5.20244425408556    6.09635698893664
H         2.29235259529706    4.58685732218675    5.41737971146849
C         4.35172559255731    6.04255151276732    4.67249199485599
C         4.68922250467235    5.79859795765571    3.34924536090128
H         4.26685430557813    6.41901361242656    2.57347509064680
C         5.58210547167200    4.78723564987737    3.03857881226334
H         5.84740937011682    4.59964838744750    2.00829020333535
C         6.14035913804922    4.02315259861888    4.04923353150155
H         6.83799828871745    3.23502896181804    3.80677402899892
C         5.81477818329278    4.27588116297883    5.37380018222605
H         6.26143230584154    3.68681587358563    6.16122309632182
C         4.92469130741544    5.28450812492246    5.69032339992741
H         4.67122032748589    5.50460509918482    6.71823639863671

