60
CSD_code = OKEWIM | q = 1 | S = 0 | Stoichiometry = C23H31NO4Rh(1+) | MND = 9
C         1.70929034254065    4.85911590174816    6.30997803108776
C         2.32458691432059    5.75051014352892    7.32483921266665
C         2.34134703349056    6.34003030258895    9.60051825232111
H         3.26860685651082    5.89191685571540    9.96321926104825
H         1.59526451858302    6.34282648912159   10.39105399735734
H         2.54219339176772    7.35551640808422    9.25464732196666
C         1.95709498102249    5.07662096018914    4.87692342824066
C         3.24445442114742    5.42442305774377    4.38182169720371
H         3.98627119893574    5.83754237934656    5.05134673177724
C         3.48579475590122    5.48192487869581    3.01201866606128
H         4.47005098950758    5.76475876623816    2.67406178854848
C         2.47338405649414    5.20877762436357    2.09951998016521
C         1.17700961630834    4.92863923338531    2.58514275071079
H         0.39006290819860    4.78635208925883    1.86095986603345
C         0.92807044930687    4.85465640996858    3.92476520545283
H        -0.07218147773486    4.65646467596183    4.27642548979132
C         3.84287807707445    5.55510700793634    0.18382493628150
H         3.68980128323740    5.49587833967112   -0.89176934146807
H         4.62365422067612    4.84853062443877    0.47955375762833
H         4.14456678908133    6.57099668234519    0.45170124254974
C        -0.56469276504849    5.22217319486742    6.99431184038774
H        -0.55106242635393    6.11927304721793    6.37036998895317
H        -0.47515548805132    5.50661009041498    8.04406996506719
H        -1.50162987696581    4.68672184728558    6.84545128556280
C         1.66320610984680    1.69753437489720    4.89775665617469
C         1.84002164178675    1.38479248444269    6.27566358279809
C         3.24954835459451    1.27473924047525    6.50127465591840
C         3.92875337605480    1.33515385306571    5.21098471522575
C         2.95235090479098    1.58287489708582    4.22873992577723
C         0.34186315481136    1.71024001127952    4.20533042210745
H         0.39827029894167    2.20276993210859    3.23911893493668
H        -0.40929147512804    2.19972411922134    4.81907432392154
H         0.02653377591405    0.67758433361260    4.04410538542201
C         0.74378555764158    1.18836090169759    7.26364772726235
H         0.17460002606621    2.10974251796654    7.38672468814106
H         1.13432395280021    0.88432687399602    8.22994538767553
H         0.06313810823559    0.41890560597347    6.90034782115035
C         3.88769837468897    0.86101095901919    7.78574355560650
H         3.81217466461905   -0.22315612981727    7.88407175715693
H         3.38645601723956    1.31582661106175    8.63750357179299
H         4.94055229319382    1.12982743432119    7.81233777397254
C         5.36984466944667    1.00459024668008    4.99030288939379
H         5.48501888083664   -0.07880429415733    4.93347791855388
H         5.98874449517101    1.36555573458632    5.80835288341230
H         5.73847386200214    1.43622809753716    4.06342114421742
C         3.13216197987228    1.63374204852901    2.75063109161428
H         2.64435706743910    0.76905260408095    2.29927558351412
H         4.18403867264670    1.61658543876823    2.47892877375013
H         2.67309806160946    2.52891059815918    2.32825362062075
C         5.29760015086098    4.74959782906976    7.28315211719568
C         6.22677200911669    5.59854267664045    7.94061732307684
H         7.17128284586377    5.61466287799301    7.39709529569475
H         6.40143477412631    5.25411996860624    8.95957019871838
H         5.80147883604451    6.60371059601160    7.96179754015233
N         4.53950087073215    4.07625365685093    6.74183570686998
O         3.21453382193831    6.54971034499355    7.10938965785694
O         1.80653098849532    5.55525842765800    8.54311763818207
O         2.59922366235540    5.21962449580268    0.76272289106655
O         0.46650164509572    4.31574278835796    6.61119530963667
Rh        2.97365680047308    3.26749083329494    5.72973617598778

