40
CSD_code = OKEXAF | q = 0 | S = 0 | Stoichiometry = C13H17MoN3O5S | MND = 6
Mo       -1.66983684808862   -2.54950486579826   10.38344778022474
S        -3.73407370273158   -1.77401606453288   14.40439680981929
O        -1.31515954313526   -1.46032457459031    8.94852099755213
O        -0.20541249560668   -2.88523124352441   11.06191733842047
O        -2.40624795225669   -3.82933316368976    9.65967220123768
O        -0.12930125616134   -1.21375297308841    6.61661479919973
O        -4.07334277326563   -1.34155606617256    9.70810700478631
H        -4.25157360528521   -0.39220095421319    9.68673132824901
N        -1.81053782335570   -0.60103999949614   11.33203830440701
N        -2.39953212561873   -0.57610511466500   12.54963702772049
N        -2.84202888021624   -2.76201107480274   12.01499092973069
H        -3.37198543682092   -3.59291590973829   12.26359058315688
C        -0.60747942074387   -0.37036175648137    8.74069734406107
C         0.04739540309813   -0.19043040871063    7.49357966638725
C         0.78509694263016    0.95690578651554    7.26718285526203
H         1.29562659521604    1.10511715278717    6.32903792509158
C         0.87899792630047    1.94104899705212    8.25177267248048
H         1.45899084289300    2.82830579824411    8.05056904975899
C         0.24765172432262    1.78847055581410    9.45976802766775
H         0.32476261605479    2.54931975322537   10.22114776615966
C        -0.50192954481914    0.62920887156027    9.73056525926397
C        -1.15882825677715    0.46580310218849   10.98998393854634
H        -1.10577317263351    1.28055653865172   11.71248875452332
C        -2.92712782009893   -1.73376733912792   12.84988056155435
C         0.56972296576252   -1.17648365083623    5.39629586234400
H         0.25021762723916   -0.33227673505672    4.77557058740236
H         0.32523095125170   -2.10879053212691    4.89048059431091
H         1.65122834296709   -1.12286652519328    5.55517023590220
C        -4.03327250429021   -3.58808009429253   14.62440089926001
H        -4.79418464343730   -3.88356532118067   13.89862268301315
H        -3.08980044646389   -4.10323406029210   14.43930039765039
C        -4.51692097594198   -3.83301493364167   16.01173690054437
H        -5.46371419931506   -3.37345907985738   16.25738215215466
C        -3.85386056817376   -4.54543121302931   16.90339665269599
H        -2.90527233754983   -5.00200995712031   16.67374192592133
H        -4.23646629029584   -4.70823369073325   17.89556313334173
C        -4.45174096854202   -1.89459323291939    8.45390009624956
H        -4.16604582859281   -2.94551455375755    8.49227893432721
H        -3.92054801975200   -1.40810886810822    7.63036912990722
H        -5.53262449777130   -1.80082259926580    8.30715088971371

