59
CSD_code = OKEZOU | q = 0 | S = 0 | Stoichiometry = C21H29BClN3O3Zn | MND = 4
Zn        7.50776135466828    9.58407924917239    0.48547839686401
Cl        5.59601983508779    9.53580960307964   -0.48835505849774
O        11.25196796962219    8.47344943740097   -0.27866818008137
O        10.03862415539979   12.08431101812396    2.18744883809203
O         9.37088085241616    7.74803657721319    3.47335076522710
N         9.11710003636934    8.96037552778096   -0.47430021282085
N         8.27713560154932   11.24931361667348    1.16785205969434
N         7.82691674988837    8.48640795743123    2.09259425492072
C         9.42714944259512    8.35239067414093   -1.76508938191186
C        10.93036187097661    8.02287276160961   -1.59566299245990
H        11.14209156190337    6.95218750070470   -1.65579065371022
H        11.56539798123639    8.55538583503964   -2.30867783490037
C        10.16170402123719    8.98890585964193    0.27120407341937
C         9.42250607690895   11.01826420275140    1.69816651264184
C         7.95613628594007   12.67188835107336    1.25111461298142
C         9.21066077854697   13.22741916704485    1.97011631130755
H         9.76617045645575   13.94593921329330    1.36186559991155
H         8.98116706814164   13.67800737723426    2.93915538697300
C         7.78330598085023   13.23568699129438   -0.15756114084245
H         8.69351439532440   13.09506858923903   -0.73688269790588
H         7.54968775215431   14.29658022840130   -0.11321360654400
H         6.97072549342459   12.71360851160535   -0.65777677338833
C         6.67750272690404   12.85608903753372    2.06546918759978
H         5.85878851992887   12.33534455848403    1.57388632714723
H         6.42985568234101   13.91168506533417    2.14545354641543
H         6.80102716089233   12.44201296187913    3.06403607497067
C        11.52885524295797    9.69131076016589    2.54574374960706
C        12.71900381800103    9.93542269566557    1.86389106236347
H        12.71269865246801    9.98222779055329    0.78530474763896
C        13.91871052173396   10.11746728572124    2.52923666034347
H        14.82431593414269   10.30099420656871    1.96700802279645
C        13.96221715637185   10.06995385847806    3.91095817534500
H        14.89731722766448   10.21083567195296    4.43475307424982
C        12.79141761882236    9.84868679167297    4.61404216528959
H        12.80863007204509    9.81954190030308    5.69513746297998
C        11.59803825700540    9.66905476306169    3.93771031751964
H        10.69722959627008    9.50515719601639    4.51082280472820
C         9.04530348862594    8.57159377011420    2.48749681910604
C         7.11240058078170    7.46942830008948    2.85929774973180
C         6.63022440264346    6.37015344144359    1.91503547883077
H         5.96585189023194    6.80029053752916    1.16878825253182
H         6.09261682385990    5.60530320984820    2.47005852797601
H         7.47458261368643    5.91140333466604    1.40429360417969
C         8.21825020559377    6.98224680759376    3.82751140066407
H         7.98065988112218    7.17918590633311    4.87647425567726
H         8.45625160743771    5.92249499865751    3.70610358364179
C         5.93117677585986    8.11301056592247    3.58195020539677
H         6.27545426357389    8.90880565575435    4.23939057827863
H         5.39877002355783    7.36991873815688    4.17050983791740
H         5.25075080205100    8.53957026327392    2.84860542300984
C         8.56760732857199    7.10533240850292   -1.95961916897782
H         8.75864203549375    6.38473112740257   -1.16691404953198
H         8.78565192043944    6.64344536016190   -2.91938375178843
H         7.51632295597196    7.38304814826634   -1.92992006960488
C         9.16370507223570    9.36522719096085   -2.87733982232869
H         8.11390711715354    9.64903090680061   -2.86255619581715
H         9.40114050901230    8.93278871411407   -3.84611112762047
H         9.76653154156755   10.25876175182879   -2.72806751637425
B        10.11880425227752    9.55995606923372    1.78607432713917

