80
CSD_code = OKIBOA | q = -1 | S = 0 | Stoichiometry = C25H43BClN4O3Si2Zn(1-) | MND = 4
Zn        7.84570263123193   13.40876777220420    3.90113743972440
B         9.73247771123618   10.56872678989663    3.59046900794944
C        11.03110338334852   14.13817812544125    2.90234918586233
H        11.27495537951795   13.86059691459234    3.92166496890456
H        11.96174330691625   14.39511152679113    2.40447329555323
H        10.63137385941506   13.25525682211909    2.41922875309683
C        10.64700346176934   17.07773442968710    3.69551302346756
H        10.02766069864038   17.96083298554068    3.58754000330453
H        11.62058162099650   17.29819499613474    3.26725956513203
H        10.78329686782575   16.90618717545465    4.75896398290516
C         6.66534419259659   16.85120059296279    5.42329690143994
H         6.27583587540265   15.96410387919804    5.91305861186097
H         5.91177336693531   17.62935599667062    5.50347697536893
H         7.54352032404056   17.18255481740519    5.96994856877820
C         5.44623451343532   16.05087478457813    2.70768955125023
H         5.60303305463949   15.85718854839593    1.65071344220358
H         4.73408793632560   16.86687569440662    2.79228437083766
H         4.99092264492086   15.17096762547529    3.14815193008974
C         9.37565302642832   12.91930086154907    6.57412083173951
C         9.62264709995005   14.42177749504260    6.64043056377474
H        10.46209011309102   14.69821602695844    6.00713488476215
H         9.83096014697397   14.72421490834503    7.66610318082313
H         8.74251846263578   14.94717033587917    6.27913432115506
C         8.19942696635380   12.52618633571251    7.47042423310189
H         7.28841618856264   12.98526453488686    7.09473013103435
H         8.37481040492134   12.85169619671452    8.49461625052184
H         8.06265523400506   11.44632488089554    7.45312676685900
C        10.63933857556144   12.08558170814842    6.89197640184314
H        11.54243199909176   12.70228006608697    6.97328214637594
H        10.53630783873110   11.48155174274058    7.79772785630008
C         9.84988113326890   11.53400134197879    4.86628811886305
C         7.83741880465527   10.90805856920461    0.38593087961373
H         7.03575660780359   10.19311427955504    0.17230347386186
H         8.38610185505766   11.12214510639319   -0.53623300870374
C         7.32633501180423   12.18897269021831    1.08863837411181
C         7.74584644220144   13.45851193898876    0.35083476142143
H         8.82096313389413   13.45607955044780    0.18719624142670
H         7.50307791615001   14.32617023138873    0.95875927978524
H         7.23238998713509   13.52657241935731   -0.60710707729258
C         5.81608438549971   12.16460842683490    1.30986151439017
H         5.29352732561107   12.17434438629288    0.35441522882020
H         5.51936867761367   13.03450075179072    1.88920669680302
H         5.53100585496859   11.27518076447981    1.86789765940080
C         8.78324179424628   11.09370005013475    2.40942736784401
C        13.34881106715890    9.68922169426753    2.96677281337990
H        13.67292729211738    8.66046233225074    2.77215915304766
H        14.11814777324025   10.19953590445727    3.55702950526332
C        12.99287594945729   10.46008717245713    1.66262660007312
C        13.13658976423245    9.57946214754002    0.41946364841164
H        12.53017551841642    8.68272494716135    0.52709051507937
H        14.17774282183649    9.29504867808046    0.27088930088984
H        12.78574728569296   10.12573555436552   -0.45201724827424
C        13.82024139184657   11.73636656022877    1.50617181912668
H        13.46978844797609   12.29056892365479    0.63947451263833
H        14.87502114472511   11.49489366491523    1.37835780701438
H        13.69814671584124   12.36633589690994    2.38403796581043
C        11.19938847043380   10.34346485573391    2.97591833269815
C         9.00947185724922    9.23893217887670    4.18384010484646
C         7.72374660525219    9.36166353293112    4.70948009666461
H         7.24588614138054   10.33197540376546    4.71120114024249
C         7.04668756516518    8.27353673820151    5.23038590402571
H         6.05022391293047    8.40143622212019    5.63205673576801
C         7.64301435698493    7.02340778350989    5.23788733717663
H         7.11778623523389    6.16824387799226    5.64446290627288
C         8.91819164119339    6.87955234623021    4.72045510501884
H         9.39405704378087    5.90626485623814    4.72268127591486
C         9.58855366853004    7.97520015606760    4.20160378255633
H        10.58655583812122    7.84523515858917    3.81192944876252
Cl        5.84408001078987   13.06129333226693    4.80751362993982
N         9.07691128795950   12.49639990894334    5.20752080732381
N         8.02242906166048   12.12335343977535    2.37142984174085
N         8.27014627606080   15.24801296467340    3.44134670998290
N        11.59655508855202   10.80112058060564    1.86252334740539
O        10.78032511277654   11.21473760612515    5.77807673962144
O         8.73188375200169   10.31963988913323    1.32033486979653
O        12.14118088079598    9.66422348244678    3.70202346651366
Si        7.08091828086128   16.47446187599189    3.59672759520270
Si        9.81828002132702   15.59366240892074    2.81765323842784
H         9.75219464829095   15.99154606633376    1.37967742207621
H         7.55421125471762   17.74315678126130    2.98836711319216

