59
CSD_code = OKIBAM | q = 0 | S = 0 | Stoichiometry = C21H30BN3O3Zn | MND = 4
Zn        0.72431451647158    3.81478880810093   15.45760369283068
H         2.03149585244005    3.82909337969566   16.17023724491286
B        -1.93960681092231    3.82606322082617   14.01604594649342
C         1.51010730394764    7.06418339191514   14.00172530199701
H         0.64783141704446    7.50043110991609   14.50159061321170
H         2.03295022391568    7.84366423597193   13.45202245000520
H         2.17386598828204    6.65094799296622   14.75718632675428
C         1.06539388230555    5.95334507336781   13.05164934823332
C         2.27295989198244    5.32833300121960   12.35518882427236
H         2.93827545706328    4.90178497106432   13.10188189052446
H         2.81099873803276    6.08089354673274   11.78331814782361
H         1.95323395013767    4.53352047715285   11.68455454048311
C        -0.01375571904902    6.43498194753411   12.05032416434433
H        -0.26749868773485    7.49168199595410   12.17153526755794
H         0.26114777521030    6.25058454585618   11.00778651392291
C        -0.85427011642038    4.82858883022060   13.36218574795164
C        -0.56417874711428    6.28059777759853   17.82255759679865
H         0.49060723478350    6.01817961099260   17.84686786356059
H        -0.84048625592883    6.74534002575370   18.76637155041690
H        -0.72372276796751    6.99357143964941   17.01633425400633
C        -1.39632248917431    5.02095367217144   17.58802571239790
C        -1.17766850206150    4.01561900174952   18.71750956979974
H        -1.76622535424454    3.11734024727543   18.54307432024737
H        -1.46618712700351    4.44979385930328   19.67211080537530
H        -0.12722687649287    3.73733620093195   18.75289136500281
C        -2.89453650725920    5.34085023551866   17.36085873579605
H        -3.55370076643270    4.80177356517234   18.04738045013218
H        -3.11607617460728    6.41017355084155   17.41836290011662
C        -2.03335312342245    4.38376550332566   15.52980664492341
C         1.53004267090244    0.55773929237260   13.80952191604434
H         1.44269526688875    0.99097846353331   12.81542387275105
H         1.77574254208246   -0.49780345575497   13.71698107946932
H         2.33184186417108    1.06759416001736   14.33807930994193
C         0.22271553704392    0.73260254788480   14.58025801076528
C         0.34298229838802    0.13959777916796   15.98310304287182
H         1.13684006889203    0.64929308393867   16.52364705192470
H         0.57175912835637   -0.92222048750477   15.92642179145186
H        -0.58767532636393    0.27407511596562   16.53024096840113
C        -0.99907876670046    0.17628831180163   13.80645074868753
H        -0.72914370808054   -0.25761864077892   12.83957817114303
H        -1.56871998381103   -0.55864683819815   14.38207713825764
C        -1.22885669150809    2.37973840391097   14.11153744936727
C        -3.32825880260572    3.68373041633505   13.21853147952599
C        -4.52508225305221    3.38960787589132   13.86841261718898
H        -4.53960272240401    3.31303057219220   14.94558215558169
C        -5.70619365520805    3.19343527637690   13.17456259649344
H        -6.61819430525098    2.97221550407821   13.71332696687944
C        -5.72393454253391    3.27603098014408   11.79383754519374
H        -6.64493333691730    3.12567463687131   11.24741348675733
C        -4.54550627944754    3.54631585512417   11.12125495855951
H        -4.54220121365952    3.60346114970524   10.04071022914568
C        -3.37119809454404    3.73996599371696   11.82656593027315
H        -2.46407485427491    3.94163101358291   11.27560460601819
N         0.34525267311539    4.92789787369502   13.79916680462514
N        -1.02187376825203    4.41547954603566   16.31435313601591
N        -0.10402875220615    2.15194321023740   14.67689436228208
O        -1.16360228514497    5.65332177388604   12.36246532560608
O        -3.15671583437866    4.89403215533157   16.03336142771617
O        -1.82596307927733    1.31422721166504   13.57904803117082

