129
CSD_code = OKIJID | q = 0 | S = 0 | Stoichiometry = C74H46N8W | MND = 8
W         6.35530249583144   10.74941748137462    6.63250794211976
N         7.06139859130401   10.77622120231070    4.51387431482899
N         8.50797791844370   10.20615821141679    6.82218515876041
N         6.43100281578800    9.68777197094381    8.52678060471074
N         4.69826650697467   11.49566858565693    7.92499189460475
N         4.54118496284779   10.25711981639611    5.42716878971786
N         6.30538203256395    8.58970128477492    6.31731779097928
C         6.97500079300182    8.43038197092889    8.52627359620793
C         7.25052167202065    8.01195749900008    9.84221196547059
H         7.66705432221198    7.06421004963104   10.12426641138590
C         6.85654244000715    9.03976530334672   10.66765148550932
H         6.88075541819092    9.06132431064871   11.74010596890501
C         6.33692085027610   10.06658389528140    9.83887906277002
C         5.62565695187113   11.21974392082920   10.20457363056402
C         4.83596349134402   11.87660637861904    9.25563016941690
C         3.93981673966812   12.94947903787181    9.54334034630431
H         3.88322830093588   13.47001345992190   10.47859399477218
C         3.19594582997954   13.16659485841507    8.42793432608765
H         2.39916552533079   13.87178919533191    8.29559910461390
C         3.65782425363683   12.25505983049642    7.43167544280255
C         3.05256977732965   12.06942351866214    6.18595167214687
C         3.45117234118566   11.08614446345414    5.27398950339929
C         2.74260942384280   10.75829561437238    4.07941548039594
H         1.85726342332308   11.24833905568224    3.72541715770452
C         3.38074752514899    9.70101384354436    3.51545227626802
H         3.10740805573404    9.16964012530031    2.62517607673470
C         4.48157507103333    9.36914242907741    4.35875168409363
C         5.22636604307774    8.19294729323295    4.21173387096406
C         6.08388515388262    7.77244248938163    5.23658439542981
C         6.66712435918017    6.50026588104992    5.48098291978416
H         6.66839217981961    5.66621102740157    4.80716820977072
C         7.18113762555704    6.52627503986745    6.75452644869193
H         7.66923478730847    5.72931101233085    7.28037081809741
C         6.93025946341266    7.81638456784697    7.26088199788879
C         5.63606907438100   11.61377371300213   11.62035711105242
C         6.85596344455927   11.75521183011944   12.28121322848443
H         7.77359208655459   11.59680631116896   11.73612402010184
C         6.89677437668682   12.10420135948220   13.61761584461482
H         7.85134277576801   12.21696084000659   14.11106822434222
C         5.72128595946499   12.30375559703768   14.32268930108580
H         5.75297251384548   12.57593057731200   15.36733133765850
C         4.50407122806768   12.13781501604685   13.68336950301800
H         3.58330081563751   12.27038309732591   14.23291333993653
C         4.45948854472305   11.79264150271726   12.34503440523975
H         3.50769020681460   11.62901614720952   11.86171705853414
C         1.83280187047277   12.85318554716964    5.87920897862786
C         0.60283585977111   12.20873170965487    5.77082406886206
H         0.55142263107547   11.14033827489149    5.92275746405339
C        -0.54488940165280   12.92577872268994    5.48637535970233
H        -1.49237938402809   12.41254561060228    5.40787287836188
C        -0.48233933411117   14.29736507349389    5.30493760755733
H        -1.37846465702973   14.85652332300978    5.07968727869362
C         0.73445458930748   14.94753841637383    5.41987127914974
H         0.79070162972875   16.01786910842937    5.28390926971274
C         1.88308786700283   14.23284449988106    5.71032872873291
H         2.83131610700760   14.74021822642964    5.79763909306906
C         4.95826980933594    7.29183153134393    3.07498357305386
C         5.14418832387407    7.71304763510993    1.76089968372459
H         5.48524273507933    8.71911566760872    1.57477699469563
C         4.91182755752074    6.84989277802609    0.70571082747852
H         5.06898634003755    7.19006408436158   -0.30757186516840
C         4.47883398811537    5.55629938350110    0.94312424712861
H         4.29811758615931    4.88311369086538    0.11819982984414
C         4.26889597302273    5.13452769565239    2.24532821653456
H         3.91483676488158    4.13220715117750    2.43839907354428
C         4.50541662763857    5.99369167221832    3.30263200466480
H         4.31609919796302    5.66960975000328    4.31515071213892
N         7.35017313196900   12.26901641250818    7.84835581196859
N         6.00045483654801   12.73999403856408    5.83781976286356
C         9.22282356278846   10.20270413486495    8.01384192946333
C         9.11180623509193   11.14965165218082    9.03702050734485
C         9.10805314957213    9.24972023244124    6.02927553693629
C         8.81356543703028    9.04103382301875    4.67776149907115
C        10.22074201821192    9.18402726089314    7.97326889220929
H        10.91040573606405    8.96892798228358    8.76573752095089
C         8.21999205581762   12.22387799819353    8.90738927670732
C         7.88614239991781    9.81646328777836    3.96971528931402
C         6.42813208161051   11.37730276398658    3.42912075414630
C         8.95789778567195    7.04898333827367    3.18379210235420
H         7.88013510714634    7.00099580212703    3.18284265381189
C         9.59732039279841    8.04808290391956    3.91464159168171
C         6.82943336652443   10.73532954605044    2.22217699324398
H         6.47039258430231   10.98565763438573    1.24320814857434
C         6.76465033213042   13.50637115699165    7.88365926671756
C        10.03118875474965   11.10808979801906   10.18894745635194
C         5.12700723818151   14.59778042154505    4.84830056750645
H         4.72358565500493   15.23697187601050    4.08657116530657
C        10.14042687024207    8.58457523355851    6.75717535188585
H        10.72987468452835    7.76830046382235    6.38982040159481
C         7.74764602061929    9.78915356956074    2.55116978907084
H         8.29335762076698    9.14855231743670    1.88702656719019
C         8.11588220104900   13.42729366612976    9.65458922534429
H         8.66169499442703   13.66430707014749   10.54657710905550
C         9.69102557902383    6.12150849575530    2.46705621617721
H         9.17813264472891    5.34945457535942    1.91183295488683
C         5.48889319364733   13.23738336264604    4.66836436935256
C         7.21698833130789   14.23500004422259    9.00120345853944
H         6.91001960875576   15.22646224320484    9.27097449858229
C         6.01549702769361   13.78511127960947    6.72549229090128
C         5.46566181250408   14.94036653027668    6.13659975352271
H         5.36390013064536   15.89711109175113    6.61126923839377
C        10.87749316822436   12.18441425231983   10.44730953781043
H        10.88296971703529   13.02637453067865    9.77111454577543
C        10.98858094248033    8.11294150510433    3.87875615109777
H        11.49507942523988    8.91004310066340    4.40304767387536
C        10.06686092180674   10.00857560651049   11.04301704758934
H         9.41457562306912    9.17089121393029   10.85046070825461
C         3.68901962491782   13.44651862508279    2.24567302840533
H         3.08901709773692   13.23599679102304    3.11758345980912
C         5.81733731147765   13.43147435078039    1.14286171520175
H         6.88066529220731   13.24351796840873    1.16276313030263
C         5.62535921487141   12.52247564875585    3.47176572949351
C         5.24133873838127   14.01823720879079    0.03079739117020
H         5.85449882664278   14.25769070243009   -0.82600689229487
C         3.88750421285747   14.30908504969582    0.01588910400540
H         3.43979692631045   14.76396428812551   -0.85530345632452
C        11.07454777929740    6.18189982480180    2.45626119532957
H        11.64656745317201    5.45652710386717    1.89682561964574
C        10.90869343680457    9.99834954876451   12.14020286408221
H        10.91748309713802    9.14244490364832   12.79938462729696
C        11.73635471806122   11.07857090759772   12.39618805643235
H        12.39265263791517   11.06933497852699   13.25385072807125
C         5.04349679538729   13.11732486868841    2.25790387132508
C        11.72266447519130   12.16817990163023   11.54154828179705
H        12.37534409208149   13.00891805394678   11.72714901446887
C         3.11547282099854   14.02880672446050    1.13124147819926
H         2.06216792343731   14.26906398658592    1.13533600754557
C        11.71959898876904    7.18635104445641    3.15799372523960
H        12.79788530767639    7.25202513489495    3.13944451525055

