99
CSD_code = OKINEB | q = 0 | S = 0 | Stoichiometry = C44H49ClOP2RuSi | MND = 8
Ru       -0.41267660780687    1.88220633413225    2.69417833299059
P         0.73751833442851    2.52756343009627    4.54054432690488
C         0.03247645631146    4.00533238655746    5.33643581038406
C         0.65227146971695    5.24906522261100    5.31784549213558
H         1.63061208852851    5.35842909409476    4.87090439490565
C         0.01680768490140    6.34639432178664    5.87434919445250
H         0.50276489895743    7.31135226176588    5.85818775224899
C        -1.23578738483280    6.21250324604598    6.44884350581231
H        -1.72658710360474    7.07179444536119    6.88190578545843
C        -1.86130613958315    4.97485470089954    6.46280934004397
H        -2.84009564672503    4.86636594244817    6.90786122187942
C        -1.23384240547458    3.87955948255972    5.90257664188640
H        -1.71308326690058    2.90978471669123    5.89620647171678
C         0.93543677882834    1.34166430671196    5.90817231378488
C         0.70922508190068    1.62085961054179    7.25012474642147
H         0.36242534726140    2.59894478812769    7.55274054757854
C         0.93426241659879    0.63999645926347    8.20117072880657
H         0.75687417157637    0.85764403559836    9.24478403854629
C         1.39116956540062   -0.61120677775286    7.82243033093604
H         1.56870600777983   -1.36940721661651    8.57151389615540
C         1.62188797866107   -0.89041174197638    6.48358324206276
H         1.97805396714019   -1.86596721360253    6.18593670009908
C         1.39084521306229    0.08060268242524    5.52766038007405
H         1.56541524402363   -0.11627952280250    4.47622713660882
C         2.47367393865236    3.04168953600021    4.30098465374219
C         2.86202002817798    3.51810321068108    3.05386471470681
H         2.14335452923678    3.53044512732957    2.24433301424492
C         4.15784601814399    3.95188979011264    2.84417833948850
H         4.45555644789057    4.31402768168236    1.87084312630945
C         5.07514817306319    3.91393036614315    3.88106877485769
H         6.08979909234212    4.24669190964509    3.71765309994117
C         4.69269561399010    3.44379483249097    5.12697021595671
H         5.40867322533599    3.41264659454417    5.93561859523485
C         3.39730970434762    3.00936722020019    5.34108958545496
H         3.10146129454458    2.64081358944423    6.31324312483366
Cl        1.55463236868100    0.70796692555148    2.03960664095650
C        -2.28975519511047    2.31038305053013    1.64546936649787
C        -1.28524305452272    2.05924991068827    0.67238817520587
H        -1.32617644273634    1.32053107362170   -0.11635742759053
C        -0.31745475780963    3.09714789022998    0.77824309206000
H         0.51754438966535    3.24343394576728    0.10487809556198
C        -0.70267371262403    3.96281993737584    1.82040495586384
H        -0.23182253067209    4.90287930260130    2.07757020914445
C        -1.92289626435385    3.47467921079719    2.37369118658719
H        -2.54423380138053    4.00025204036104    3.08659440676343
C        -3.51776213359259    1.47659725867687    1.88323035600730
H        -4.15203005944272    2.00062552479494    2.60673976529294
C        -4.33366359941298    1.35446208014310    0.58737177360352
H        -5.23708835815262    0.75825451240650    0.76984799256701
H        -3.74276025443518    0.85042482529062   -0.18402933770726
O        -4.70788801547255    2.63208525756573    0.16688831439295
Si       -4.74541492392672    3.26872706317451   -1.34117166516588
C        -3.21152710424001    2.77306124196566   -2.36225987693406
H        -3.19889199483824    1.70289151475227   -2.55251039258748
H        -3.19095319817032    3.26754957838536   -3.32765172500439
H        -2.29164623198406    3.02540448050663   -1.84281317211841
C        -6.29834572188040    2.66398003515137   -2.27365198094441
H        -6.26949307370746    1.58799864296795   -2.42417202486738
H        -7.20403754219896    2.88845763843490   -1.71782840083669
H        -6.38916985902240    3.12554815756858   -3.25099317582542
C        -4.78656740721100    5.15288174200925   -0.98079063021344
C        -4.96713875186706    5.92861964285630   -2.28463527497671
H        -4.98304799958185    7.00104754487079   -2.09120003888557
H        -4.15324160770801    5.72138213313731   -2.97527112097374
H        -5.90223234675541    5.65780088872388   -2.76864947579985
C        -5.94651227487243    5.49248658717349   -0.04365389785049
H        -5.95241564545384    6.55823992673796    0.18579881566952
H        -6.89966828533421    5.23827015996323   -0.50125658026493
H        -5.85417268238767    4.93919716468375    0.88701150539404
C        -3.48063163403907    5.59938704336430   -0.31980694327841
H        -3.51876865940707    6.66198704544287   -0.07895424428402
H        -3.31052434935802    5.04543588275987    0.60002169917194
H        -2.63350581348360    5.43276127245462   -0.98143592317014
C        -3.11969633922313    0.09549552448991    2.41982035486566
H        -2.79299397678134   -0.53202052106828    1.58104509088815
H        -3.95522611829677   -0.40943794856209    2.91403455771880
P        -1.63207700612569    0.16253187260570    3.55001848548615
C        -2.38294595001617    0.33278236019290    5.20843612222996
C        -1.84764713585747   -0.36616905328528    6.28706609373591
H        -1.02823763628594   -1.04995746451064    6.12234319852894
C        -2.36293571536186   -0.19641078499942    7.55838072150979
H        -1.93677852376422   -0.74634604083181    8.38438741323314
C        -3.41991822923064    0.67259347088624    7.77303055079869
H        -3.82401950078488    0.80240856232131    8.76609972688853
C        -3.95626793098638    1.37615683895726    6.70772594344072
H        -4.78026243643439    2.05687242670796    6.86785273412629
C        -3.43464256981516    1.21539347684567    5.43633669922148
H        -3.84585474064331    1.78447895125508    4.61612529979829
C        -1.27027789186244   -1.62846992325639    3.55260923343654
C        -0.09878208673867   -2.10331991534577    2.97704972473185
H         0.61240717711387   -1.40203528037679    2.56253055708283
C         0.14870425035794   -3.46567731423734    2.93358730424338
H         1.06380980227900   -3.82802633838934    2.48911275983562
C        -0.77142330738109   -4.35785661047374    3.45513104073436
H        -0.57805410391523   -5.42031874070365    3.42203886501958
C        -1.94750731797589   -3.88761830989242    4.02017350008424
H        -2.66978243942525   -4.58298683076062    4.42361946670434
C        -2.19915359330268   -2.53047959970249    4.06941364145020
H        -3.11307036685219   -2.16683579433622    4.51952829633708

