59
CSD_code = OKIWIQ | q = 0 | S = 0 | Stoichiometry = C24H26N4S4Zn | MND = 4
Zn        3.55322057668526   15.06266367643220    9.66002837301123
S         5.19662338963385   16.66193291263084    9.04650094971599
N         2.61495762694289   16.63572673983422   10.68011679353627
C         4.28456637432745   17.90666067342695    9.79194606566556
S         5.00222555469989   19.48008778620212    9.59431371547537
N         3.17258565163393   17.84481079076507   10.44640746018088
C         3.91714639081397   20.55776767833778   10.61826866567905
H         3.71880637411450   19.99533293460389   11.52922962784834
H         4.51985888773988   21.43910362668118   10.83100172826483
S         3.96064224678471   12.82675035791122   10.34385539146634
N         1.93461606643451   14.28321740803029    8.58847084374890
C         2.66702465938794   20.89883751551500    9.89536351404400
H         2.01091459655573   20.06059952706303    9.71189489359865
S         2.12784120163790   10.65400043475034    9.91631302700761
N         1.67211566968525   12.98718808397163    8.86490110114116
C         2.37070905429906   22.11026033347554    9.46130514554939
H         3.02723546092038   22.94859106915607    9.62698714783487
H         1.45638074216966   22.31756769580021    8.93213557163671
C         1.43612539556551   16.62020434542070   11.20658691124803
C         0.67845381127379   17.87443738632930   11.49951590980323
H         1.34720069092991   18.59198624859427   11.97220170035139
H        -0.17210635759431   17.67714266190822   12.14502596569733
H         0.33493632003082   18.32291106770154   10.56720731423720
C         0.83929300860085   15.32057893666081   11.50455825923217
C         1.59102133871060   14.31974037212747   12.12059647181183
H         2.59989344963458   14.53479065366564   12.44467818802036
C         1.03735312672411   13.07515658448463   12.35948909515565
H         1.63228987465537   12.30674663263826   12.82890127953613
C        -0.26829282695987   12.81116905015165   11.98190768638877
H        -0.69153776408523   11.83267096754539   12.15082568604449
C        -1.03123943043294   13.80784292920939   11.39437491710631
H        -2.05500067839643   13.60861029821149   11.11092141245346
C        -0.48849399883994   15.05823205992299   11.16725592780503
H        -1.08250980961280   15.82801773416306   10.69668501868098
C         2.51190654258491   12.31942520753698    9.58377719541025
C         0.76936352256217   10.30125119761408    8.72402798601946
H         0.15852534783220   11.19896837863367    8.67383934910974
H         0.22054150404950    9.47505687690114    9.17438342270958
C         1.34963412886936    9.92541864623076    7.40894153434796
H         1.90457698642802    8.99707595084575    7.40108192458101
C         1.26410941933719   10.66880682613932    6.32146526778330
H         0.73185427754447   11.60500029067639    6.31867576374035
H         1.71795742039076   10.37185961788987    5.39207757535626
C         1.00149702108873   14.96338480401724    8.00927071676660
C        -0.32816755863230   14.36207920284564    7.68994431476665
H        -1.01590685414695   15.10113230211073    7.29190461304637
H        -0.74302282170593   13.89383588813982    8.58210269206743
H        -0.18796595493221   13.57476759392674    6.94959501090391
C         1.28930565092390   16.35310904309055    7.66463303327304
C         2.51447772065546   16.69466247485590    7.08996342938445
H         3.21881517372822   15.91449238920746    6.83612223590110
C         2.80942123366052   18.01417809445532    6.79919161429978
H         3.76487172727323   18.26412383179305    6.36404447825269
C         1.88929766214928   19.01015554927453    7.07763310449641
H         2.12746223110051   20.04133064212853    6.86636737417707
C         0.66141141701892   18.67854430260851    7.62914350747697
H        -0.06168888360738   19.45349286848391    7.84107776023550
C         0.35745425645493   17.36121048961515    7.91399498970726
H        -0.59478784543868   17.11190035754325    8.35996934700598

