59
CSD_code = OKIWAI | q = 0 | S = 0 | Stoichiometry = C24H26N4NiS4 | MND = 4
Ni        4.01499066940186    9.50968165144976    3.51064230294351
S         3.06703906253308   11.12483034107109    4.66661717275956
N         5.62080113726431    9.95448059093821    4.51979333564074
C         5.10256603567379    7.19020617660924    4.56026805980224
H         4.31118377680151    7.79605234196814    5.02569966833823
S         4.53646887931308   13.45245055508279    5.68883351985227
N         5.72310654995431   11.21441294765774    5.00293225797951
C         4.85767387745859    5.86422105233132    4.25188624078460
H         3.87142879201278    5.45013940196151    4.39979921777238
S         2.22218948373590    8.43005525048607    2.86800313967434
N         4.87393764210382    8.69142942999922    1.92978885546623
C         5.87681690588780    5.06688366112823    3.75752553684474
H         5.68257024882392    4.03201025416941    3.52131310385027
S         2.25248834973624    5.93318853949890    1.34040185434373
N         4.33444142246573    7.53157857709473    1.48085689772061
C         7.14449692046937    5.59748258303098    3.57260256016264
H         7.93689059628511    4.97523939232224    3.18234138607785
C         7.40056922278993    6.91941933937733    3.88225552287891
H         8.38554346731814    7.33320688112724    3.72215068479796
C         6.38189005146718    7.73545231782475    4.37352997517057
C         6.60243752562793    9.13512694288755    4.72027420990318
C         7.88350681707267    9.58441284517355    5.34415641923662
H         8.48518006380370   10.10656806208372    4.59909946003925
H         7.66360497473066   10.29528623877111    6.13847947818115
H         8.44449443515682    8.74384839329407    5.74110627795517
C         4.58271942454890   11.82687901283971    5.08069091941039
C         6.32925038158259   13.75590051925842    5.99558227013483
H         6.58382779423562   13.28357553075510    6.94330208200194
H         6.84624553472133   13.25557367949389    5.17653667472560
C         6.59013534541697   15.21729981092786    6.01445509394885
H         6.36538248986083   15.73853666992283    5.09387795932672
C         7.04596771367228   15.87149790953834    7.06717279509767
H         7.26379480786121   15.36881159792510    7.99518127508362
H         7.22806135999281   16.93165658625864    7.04290170845721
C         5.39953140118537   11.46228595891911    1.93689018610006
H         4.33938841825682   11.21101953224470    1.81539192260701
C         5.76862271181377   12.75612874070758    2.25761521144270
H         5.00864054142278   13.50319312211098    2.43272884172005
C         7.10935433825921   13.09071290538249    2.35733920425122
H         7.39848014884895   14.09968294083188    2.61203973733572
C         8.08236894581354   12.13212517582599    2.11926767681067
H         9.12736200438646   12.39514974508442    2.19846305293174
C         7.72328607130860   10.84117920549703    1.78212223365895
H         8.48408220587613   10.09403768102111    1.60887215614679
C         6.37732162614411   10.48601337505235    1.70063969126920
C         5.94641130865401    9.13386017372486    1.35689815137615
C         6.68459119670443    8.33432987372118    0.33267832870351
H         7.32560332459321    7.60844583814387    0.83486960035450
H         7.29212311305850    8.97312312586902   -0.30156205552827
H         5.97223368493303    7.77600805584685   -0.27133364361111
C         3.11559534084714    7.34233315245457    1.87825096936397
C         3.37646986371804    5.26017874631773    0.04666642849782
H         2.75452356534266    4.56647626549966   -0.51740534771496
H         3.65859532871495    6.11151769576568   -0.57121024023097
C         4.56349416276987    4.59085330051031    0.63427457953591
H         5.25776106850175    5.25472884009808    1.12947272694186
C         4.76395007953762    3.28601123539595    0.59664846218973
H         5.63766240176996    2.83239698982681    1.03235932132667
H         4.06944538776223    2.61771323988005    0.11416488824174

