82
CSD_code = OKIYOY | q = 0 | S = 0 | Stoichiometry = C39H31Cl2N3O6Zn | MND = 5
Zn       19.98204063126308   -2.11933031445657    2.90651302339629
Cl       20.19094034413235   -4.32412842732685    2.86025055193001
C        20.46643224509268   -0.47490296689697    0.43814705972699
C        20.45475643907512   -0.02790530281713   -0.88031110703211
H        20.70874521785199    0.99223534791623   -1.12011800025133
C        20.12542129652039   -0.92231286548911   -1.88581746014154
H        20.10709803344557   -0.59888489210247   -2.91609391750192
C        19.82411301877574   -2.23208978327665   -1.55019211575267
H        19.56167680853386   -2.95646996128930   -2.30416241588855
C        19.86857981025164   -2.59664402641716   -0.21187921413200
H        19.65466684673435   -3.60551316406528    0.11347377766374
C        20.77223487241147    0.38663253615583    1.59120687882820
C        20.74250034976363    1.77607986548889    1.56085937867860
H        20.53229756597269    2.30852251175451    0.64760787800396
C        20.96196314329129    2.48323866534125    2.74190017185901
C        20.91091463412455    3.95149196126173    2.76206721732511
C        19.93575720292794    4.62821533165247    2.03740858859840
H        19.21192664082440    4.06955297301252    1.46378698374648
C        19.87435688391239    6.01771900047336    2.05606759292313
C        20.80454223513114    6.72598994871426    2.81005820282449
H        20.76260513562404    7.80456194346465    2.82947934072487
C        18.84019491008993    6.72671178057590    1.28743738901748
C        17.52852119249210    6.25403002933550    1.26011583059224
H        17.26592421453752    5.37185931593122    1.82491166956019
C        16.56020866631629    6.92244387423817    0.54022138172769
H        15.54023392287434    6.56974959687610    0.51768352760592
C        16.88535682881604    8.07280218038691   -0.17533995116546
C        18.19353019478833    8.55007058327272   -0.15336574091215
H        18.44203756955033    9.44230974039608   -0.70577343437507
C        19.15738581726536    7.88271329126701    0.57444393558504
H        20.17456297155325    8.24640370449804    0.57644635847933
C        15.81461410428350    8.75920099136314   -0.93632128165191
C        15.33005113280904   10.51667548496114   -2.41810721900076
H        15.90610981334395   11.05216569606208   -3.17366792177649
H        14.62013685687782    9.82468828947199   -2.88284008437517
C        14.56457339841845   11.51692404047165   -1.55396272076262
H        13.70207716775406   11.88149576163742   -2.12983314696821
H        14.19698271427828   11.00761890385305   -0.65401033651254
N        20.17915327207745   -1.74165561872992    0.74374646203060
N        21.02212512096841   -0.26979209098514    2.71571943086166
O        14.65130221931410    8.43278704906246   -0.91393259207840
O        16.28343758978740    9.77970017826505   -1.66757732968264
O        15.42840994529976   12.58018671982753   -1.22282652408461
H        14.97533397090660   13.18227731871436   -0.62400476425755
C        21.35747772811493   -0.49792115745788    5.03355960215659
C        21.85881009165653   -0.06752963976451    6.25895263948606
H        22.19917272990642    0.94708350846823    6.39043862757762
C        21.92835030920040   -0.97144698766277    7.30649472845443
H        22.31174517465045   -0.66131253797471    8.26732165248858
C        21.50298839557244   -2.27375458311887    7.10139309930967
H        21.53995102691743   -3.00516945698324    7.89243378900239
C        21.02618130453655   -2.62190100337572    5.84544531311721
H        20.69123921189239   -3.62476698946484    5.61875792325759
C        21.21303740972179    0.37528491448211    3.85819864370676
C        21.20038921642658    1.76424682791648    3.91203005115740
H        21.31153974913417    2.28571502154246    4.84883298624634
C        21.83166948906825    4.67586412275687    3.51165162557078
H        22.59172306267916    4.15517454799220    4.07499854614164
C        21.78649895356352    6.06573620352713    3.54157504721773
C        22.76072261089358    6.82451378241716    4.34032212515266
C        24.10525438648263    6.45486939205462    4.35793252446303
H        24.43699239985421    5.61827044900236    3.76058413074391
C        25.01674463615700    7.16681647249105    5.10914959499271
H        26.06103215728039    6.89349456454992    5.12556313310551
C        24.60166197596723    8.26054400157902    5.86574944788742
C        23.26075175168210    8.63649027149326    5.85256151627825
H        22.94216819579617    9.48515362847874    6.43667242429017
C        22.35349206736409    7.92484565700167    5.09442684523445
H        21.31130574010016    8.20828636916144    5.10018994014925
C        25.61464377264283    8.99429602525014    6.66090564220217
C        25.96451876146473   10.74355787912806    8.18985143290589
H        25.34098859030479   11.23131953817309    8.93997441145193
H        26.70174708254828   10.08467333247943    8.66016490492325
C        26.69167481276609   11.80173467998123    7.36236889066017
H        27.51488697312551   12.20687221718722    7.96787019935012
H        27.11344334754423   11.33044472046850    6.46541069391270
N        20.95824372654008   -1.75782075169604    4.85067057233925
O        26.79610737726179    8.73835109906244    6.65280095154688
O        25.07235266916055    9.96751987412339    7.40411641916805
O        25.77489593119523   12.81671388966967    7.02337510710089
H        26.20848310768665   13.45884151502738    6.45240744031112
Cl       18.08468112360999   -0.95281659956323    3.25353202350791

