69
CSD_code = OKOFID | q = 0 | S = 0 | Stoichiometry = C33H31IOP2Pd | MND = 4
Pd        2.89608837986053    1.35773324811854    3.47661908312515
I         4.11142927826506    3.42730686526620    4.39931032260767
P         1.82154610037617   -0.45000600814412    2.74997026479777
P         0.87202341642935    2.44331771990193    3.11581263589523
O         3.95174150002298    0.07791179063671    5.67925132818872
C         0.98182398891229   -0.46853804260281    5.37494748574390
H         1.42785176605944    0.53097716690509    5.41093591515752
C         0.36768653062225   -0.99491855076464    6.49693746118023
H         0.31538788095175   -0.41442054760926    7.40644547370645
C        -0.17664102728822   -2.26864712816955    6.45404941353736
H        -0.65114437856105   -2.68195541509265    7.33183693792335
C        -0.11070237061286   -3.01676351651974    5.28888365666905
H        -0.53465049373531   -4.00996032972695    5.25940883393189
C         0.49806957632807   -2.49524536562276    4.16195858876356
H         0.55760201668526   -3.07706689633749    3.25147217712722
C         1.05033041208610   -1.21911091055658    4.20300981756954
C         3.41383510272586   -2.66349926756212    2.53850391241066
H         3.54886713814284   -2.50916521901653    3.60152509350207
C         4.09506689315506   -3.66961739378402    1.88394760380707
H         4.76594875579080   -4.31185034949598    2.43450444656995
C         3.92465104568302   -3.84559777078304    0.51922887166915
H         4.46087738356145   -4.62907457567705    0.00492828003812
C         3.07428426748454   -3.01197607312439   -0.18723667525938
H         2.94741526327218   -3.14543150950944   -1.25171583366582
C         2.39087436671889   -1.99907861320850    0.46277593273264
H         1.73961069974373   -1.34373796207099   -0.09821566723854
C         2.54749655987863   -1.82877624236112    1.83345670575017
C         0.32113534425834    0.07987597714603    1.80190221267164
H         0.65503875027668    0.48275027969916    0.83802963396545
H        -0.33326335004921   -0.78021435068491    1.62100881543127
C        -0.38709399584666    1.17196172726913    2.59786224888953
H        -0.82898135265765    0.73759287861496    3.50160828805220
H        -1.17993939847777    1.64502026321356    2.00947770512039
C         2.39658985640899    2.99968409669626    0.85144045872944
H         3.18393509952585    2.40910472202520    1.34421992070312
C         2.63208195483868    3.54486200912910   -0.39871214208785
H         3.58118695072966    3.38066060755159   -0.88746396733363
C         1.65511826838594    4.30664397606834   -1.01733581813971
H         1.84061598181286    4.73479497764766   -1.99130822590606
C         0.44108326433085    4.52730861888824   -0.38536608051534
H        -0.31798024052090    5.12669670614331   -0.86675269928051
C         0.19980242783688    3.98590792237593    0.86292073131206
H        -0.74198808957595    4.16797888287031    1.36370949967448
C         1.17702110530532    3.21712401993313    1.48941391036425
C         0.47081173747756    4.99699783822622    4.01991002833266
H         1.42255595181271    5.18033712935892    3.53885317701785
C        -0.17127061031330    6.01047554979882    4.70352126267619
H         0.27573218181148    6.99188302529130    4.75038944530980
C        -1.38120001416279    5.76369881528803    5.33312038625503
H        -1.88485836162931    6.55573548330759    5.86720578018438
C        -1.94013155967405    4.49739469335270    5.28784861578848
H        -2.87829440127110    4.30178164357848    5.78731596679537
C        -1.30012917189541    3.47538809414240    4.60950774105829
H        -1.73989678737075    2.48797868298117    4.59176166111307
C        -0.10034325827126    3.72633932834231    3.95258134160360
C         4.89066842485979   -0.23118126814926    4.71812438573782
C         6.02452031351510   -1.00389229102115    4.90182899068369
H         6.27173416476439   -1.42064814334901    5.86684326200983
C         6.85669940669755   -1.24253906781969    3.81540875459509
H         7.74224726349642   -1.84559257741878    3.95431762346094
C         6.56682776628571   -0.71870598655676    2.57220995238412
H         7.22250794895653   -0.90870723825740    1.73487288631691
C         5.42743306511716    0.05996760690934    2.39434805481609
H         5.20758652245630    0.47262752145453    1.41232944046826
C         4.59297924862074    0.30571599090268    3.46313530197790
C         4.21996591709242   -0.29039651218372    7.00764155572097
H         3.41180828628619    0.12464700403804    7.60890872027214
H         5.17232043309819    0.12621032569383    7.35064323046161
H         4.23329290312696   -1.38107806559343    7.12516587708527

