75
CSD_code = OKOFOJ | q = 0 | S = 0 | Stoichiometry = C35H35IOP2Pd | MND = 4
Pd        5.53734868767264   14.38732166113722    4.44001895605403
I         6.28658983835660   16.19215599061850    6.10811272670545
P         5.05077333994047   12.80653923598141    2.95913135881635
P         4.78294311771814   12.91170585575778    6.03971620160598
O         3.76756879859100   15.70034538481609    2.75664203110802
C         3.02336193948197   13.02487790202389    1.02581555569858
H         2.32416551072369   12.72546337123887    1.79408511592146
C         2.55627150871998   13.37492290997348   -0.22851515941888
H         1.49694075236051   13.32963084759609   -0.43760679275965
C         3.43956693130602   13.79485873073325   -1.20990108366827
H         3.06896569258458   14.07428735295152   -2.18503761774159
C         4.79559845081457   13.87121978471131   -0.93424556255820
H         5.48450956943157   14.21687435173985   -1.69030347111578
C         5.26862749196575   13.51854918693295    0.31495022521563
H         6.32454823291699   13.59483862209619    0.54000205552249
C         4.38686453028104   13.07436811669867    1.29901029613236
C         7.65944545091452   12.20309397330420    3.57442878241973
H         7.52851774884755   12.96935833399329    4.35372582833071
C         8.86916065386161   11.54344011309185    3.45628745348091
H         9.67642654540271   11.77126741794220    4.13666160100918
C         9.04525973099622   10.59839825312017    2.45821521412511
H         9.99078369240082   10.08581252657196    2.36146542089428
C         8.01458563393183   10.31927970604647    1.57460454968876
H         8.15841586433722    9.59134823722264    0.78940781144189
C         6.80069530222104   10.97199938272013    1.69061821054644
H         6.00342877085627   10.76523852793182    0.99014711243660
C         6.61265156379147   11.91303664662340    2.69881251580785
C         3.94336707188141   11.54280378917652    3.77192745849762
H         2.96286502397112   12.03673548560205    3.87177384937468
C         3.79599720306925   10.26878256627452    2.94566016032763
H         2.98621132794931    9.65238950716974    3.33130239430577
H         4.71667079186028    9.68775764780223    2.97440622728572
H         3.57063871362989   10.50657023647359    1.90694052917399
C         4.48603524447412   11.27035051462758    5.18332865075803
H         5.48550593868204   10.81917763715278    5.07337195035879
C         3.59671865975903   10.32596140533231    5.98348183460247
H         3.60974325520716    9.32623599261230    5.55302159066640
H         2.56874993245827   10.68466957343996    5.99673401584753
H         3.95189576826830   10.25198414804612    7.01013078828685
C         2.36902806832963   12.91801963638414    7.54553177754969
H         2.78328068539760   12.12246462242685    8.14840092718376
C         1.10694053390392   13.41072490511110    7.82026267727981
H         0.52864005166060   12.98235072260342    8.62612184590034
C         0.58593350554010   14.45675323449441    7.07421488224081
H        -0.39890305769538   14.83917951659211    7.29892990113060
C         1.33391566159023   15.02438580604850    6.05611342324454
H         0.93790653233794   15.85767366923488    5.49395536110448
C         2.59638872513677   14.53460086816557    5.77250841950153
H         3.20582457898892   14.99940344102924    4.98900963194507
C         3.11468668928502   13.46844423826181    6.50619174542746
C         5.37536055400872   13.38446822059458    8.67645260900915
H         4.75861207396530   14.26156509281712    8.53313176047591
C         6.01263674101527   13.17349079403792    9.88330978156156
H         5.88318192661592   13.88168585172003   10.68767005668123
C         6.82422570198726   12.06348231558604   10.05513120632867
H         7.32207664779944   11.89748181499497   10.99888675927006
C         7.01185533938770   11.17539118076982    9.00895250231130
H         7.65896867901545   10.31917469048196    9.13521534731047
C         6.38281557279051   11.38415394064150    7.79502272735990
H         6.55712595882825   10.69508830106891    6.97980263081009
C         5.53606416486130   12.47672648773694    7.62958452698588
C         4.98652671689274   16.06319312287278    2.20586782338924
C         5.16628330293516   16.86089077270275    1.09008132162182
H         4.32930415812638   17.29620655581757    0.56484808390590
C         6.45881281195892   17.10138621398788    0.64319427003014
H         6.60703323166299   17.72492643844478   -0.22656107090958
C         7.54614355356615   16.55859534207950    1.29843419392751
H         8.54757286216163   16.75567444293607    0.94366333031349
C         7.35609768127465   15.76114681711113    2.42155510685507
H         8.21707138151210   15.35012899079000    2.94225577264750
C         6.07734672271396   15.51020417416953    2.87886692042284
C         2.60460754906266   16.25543519159788    2.19740847292378
H         1.76838595906003   15.86230616878640    2.77558839536391
H         2.48639313599660   15.95943125710030    1.14859780213398
H         2.61334131673112   17.34801423357965    2.27007029143104

