41
CSD_code = OKOGEA | q = 0 | S = 0 | Stoichiometry = C13H23IN2OPd | MND = 4
Pd        1.60615002277927    0.69007230094006    3.20847349316202
I         0.88771839474144    2.37401284550649    4.97912116497627
O         1.02064278637093    2.36766155915098    1.21595283283393
N         2.43172169571792   -0.92017874480705    1.95221793989273
N         0.01024255696348   -0.84730726780982    3.64144148633490
C         3.86989351118665   -1.10392650307842    2.13918857413264
H         4.22961091613586   -1.98550187773706    1.58837735578605
H         4.09447274551400   -1.23275328899984    3.20053768338564
H         4.40330883777356   -0.22326540856078    1.78013852535148
C         2.16117303587125   -0.63601483595310    0.54632382112533
H         2.43662840677902   -1.49039053864170   -0.09059584236442
H         2.74056325134137    0.23399307167664    0.23578064752212
H         1.10515381381731   -0.40825273191997    0.39714982737152
C         1.72413787302660   -2.12856363181174    2.39171868813119
H         1.84519038957570   -2.93611379499552    1.64962422343937
H         2.17866180246207   -2.46721951234468    3.32856991332565
C         0.23194550014274   -1.87849058296298    2.62505860498623
H        -0.22892501962203   -1.55032006432528    1.68791145896439
H        -0.24879213350910   -2.82788918688882    2.91584545055427
C         0.10223439453660   -1.40216524901663    4.98867354145674
H        -0.65479478572345   -2.18397238803028    5.15182467867549
H        -0.04984854553450   -0.60663998618127    5.71900299938420
H         1.09164475539916   -1.83130477812371    5.15859847610371
C        -1.29768018371523   -0.22181698588127    3.45031985527310
H        -2.10469267908359   -0.96911188779699    3.44543983945155
H        -1.30771953449708    0.32804865068036    2.50320386199030
H        -1.48415050688589    0.48784142318086    4.25652439760242
C         2.32910021331870    2.73420070416550    1.48858884605575
C         3.06113594878562    3.69169821417684    0.80789303188281
H         2.63349346380192    4.25601945500078   -0.00723439099627
C         4.37384795307818    3.93377144805031    1.19561722038813
H         4.94692270300751    4.68331513083432    0.66981908047453
C         4.94167372011207    3.24176493648283    2.24626090973768
H         5.95796508531768    3.44995153622395    2.54755870922962
C         4.19837004289998    2.28573615953272    2.93355131159176
H         4.63342483575694    1.76958524703220    3.78343204534418
C         2.90345883816155    2.02075249922433    2.54593019009114
C         0.28136754737456    3.19497338017521    0.35128393091559
H        -0.74578618585500    2.83205006641033    0.37889652843326
H         0.65652088480615    3.13547931629060   -0.67775064923205
H         0.30191364787161    4.23637130112939    0.68672973723705

