51
CSD_code = OKOHEB | q = 0 | S = 0 | Stoichiometry = C18H28I2P2Pd | MND = 4
Pd        6.76856554904764   13.42196229999777   18.81967506212057
I         8.46704060388333   15.08594785524243   19.82912427253406
I         6.91213268752408   11.66981117472356   20.71247870189586
P         4.85206995163367   12.54183775923447   18.07169106412872
P         6.93426383895800   14.38357694998596   16.80611355044740
C         4.09036402103534   14.44318461205756   19.97411302493056
H         3.29927921441835   14.94062866309262   20.53403850876754
H         4.59804445828208   15.20277394291103   19.35859214957084
H         4.80336309744500   14.03192967265178   20.70222096370949
C         3.51286134319315   13.33798185799947   19.08918723001163
H         2.78104726438585   13.77168685758215   18.39198837739994
C         2.87484638074625   12.16953098850494   19.84869844440631
H         3.51212208577628   11.88664931490499   20.69056435632977
H         1.89521547733724   12.44681101578124   20.24019933707640
C         2.78374165163264   11.00109029055606   18.86985385424278
H         2.05339811101511   11.22387107665235   18.08786391884802
H         2.46694436980372   10.08667412033197   19.37296200783573
C         4.18308864327896   10.81993428416099   18.27025466989209
H         4.82477266196417   10.37781454140645   19.04660236954249
C         4.27234802748031    9.93405803729919   17.03569478011017
H         3.96839957251187    8.92077558621051   17.29203296655679
H         5.29880465865166    9.89735272369494   16.67068095119273
H         3.63572820962041   10.28752663681241   16.22780341009330
C         4.52222344684064   13.12397623202836   16.37443661327572
C         3.36270365150684   12.81832256042671   15.67082247279604
H         2.56186912095655   12.27802946193799   16.15419734133443
C         3.22302541763411   13.22157790833780   14.35525986876420
H         2.31882442573632   12.98593225963020   13.81411670069813
C         4.24682027532698   13.91327370628220   13.72630293861086
H         4.14885961181423   14.19716129114351   12.68911308136709
C         5.38843437215512   14.25474344511343   14.42839235570230
H         6.18152135500623   14.79518940414886   13.93257574303914
C         5.52275737693351   13.88689584771140   15.76243641573270
C         8.91873668686550   12.41488597679123   16.84636529340867
H         9.74736552924889   11.91216170545399   16.34889177374292
H         8.12226924267763   11.67181072634190   17.01089579937675
H         9.28464671005580   12.77449409601814   17.81829550463025
C         8.39964748409109   13.57336435077327   15.99404262910855
H         8.06726434624870   13.19003052733294   15.01817174309656
C         9.39485514360694   14.72051293635996   15.78742268663631
H         9.89291736716213   14.94996189671320   16.73305458947770
H        10.15787876953315   14.44871655965297   15.05682938960918
C         8.58482782442900   15.93386325905802   15.33639553960034
H         8.18095729761936   15.76318446761759   14.33526745614847
H         9.20319001282386   16.83157931245583   15.29926543566454
C         7.45373863128711   16.10968752772154   16.35629984352074
H         7.89844256908377   16.49928541466751   17.28389542092402
C         6.32724661131450   17.05035178099737   15.95249708305179
H         6.72220569734711   18.05611341692367   15.82106589293513
H         5.56680476502466   17.08455959175083   16.73273665668952
H         5.84932437804038   16.74682407480905   15.02381975941346

