119
CSD_code = OKOKEG | q = 0 | S = 0 | Stoichiometry = C55H54N8OZn | MND = 5
Zn        1.79240832334709   -0.35304150460347    7.24046503683320
N         1.56690195574434   -2.33563861776154    7.17763068892504
N         1.87575899870837   -0.40892942968081    9.22786395681203
N         2.31586954061985    1.58706468281054    7.25319088388196
N         1.99338708687741   -0.33801085277167    5.24830899998016
N         2.97949324312915   -6.24445518910749    9.40302175525526
N         3.83469646468703   -3.65040361580130   12.50995027552966
N        -0.39372663967511    2.71088719303619   12.38366652065078
N         0.74355738849066    5.39918169387786    9.40700273686137
C         0.94371197889801   -2.97773782038417    6.13200346726217
C         0.42280040467306   -4.22788092355820    6.60029661564957
H        -0.15839962249002   -4.91905767078688    6.02305101966325
C         0.79371067283735   -4.34295809956010    7.90478697788114
H         0.56717074469991   -5.14326826001938    8.58084501832721
C         1.51217075330982   -3.15041337796422    8.22589804958475
C         2.07758624719325   -2.83560634689232    9.52318862794210
C         1.98806484483949   -1.49935496991169   10.02753399199764
C         1.90310068644605   -1.11609890890432   11.38385754401514
H         1.94621937712574   -1.76522900094861   12.23473267588401
C         1.70742063475679    0.24369521177661   11.39628954514052
H         1.61162024339117    0.87207894038253   12.25869615035229
C         1.71346774807268    0.66235453312932   10.04821021135793
C         1.66113682999608    2.00953496071209    9.57549543478288
C         2.32761615982980    2.35768403289850    8.33583848861768
C         3.09501547127035    3.53995649741366    8.11194233462471
H         3.29866915351894    4.30418866365936    8.83551167677308
C         3.54402352398970    3.46696469617189    6.82829159799527
H         4.18240611325615    4.16147273368098    6.31976223246494
C         3.01902158777527    2.25386167928847    6.27552326163610
C         3.11364834092369    1.82693780758285    4.95905928013140
C         2.53438073073573    0.63136319504468    4.47402528629162
C         2.36703777447838    0.29868173649649    3.09575415409343
H         2.68656859818872    0.89897845578083    2.26666497513142
C         1.69960086899186   -0.88996248236015    3.06055467043130
H         1.41006938692136   -1.45681510893237    2.19761165796763
C         1.48533336966803   -1.27736383793021    4.41775559446249
C         0.90245738317434   -2.49678012888709    4.83279407582386
C         2.65256263867314   -3.85564008388719   10.25404714431059
C         2.80469707281821   -5.16701356514221    9.76109702246879
C         3.28795297237485   -3.69633954566107   11.50108838152047
C         1.02193676555670    3.01251210010202   10.27878660260125
C         0.26941242002488    2.81058279078440   11.45098806061006
C         0.90513340881743    4.32778642528738    9.78954762557947
C         3.80878658766353    2.68237549158776    3.98845394383247
C         3.45084537299503    4.01460342496816    3.83300708557347
H         2.62486612121549    4.39582339819359    4.41332738933398
C         4.11668361521840    4.83122321717184    2.92609674886174
C         5.14689730379880    4.27336131890928    2.18335758965970
H         5.67834478871604    4.88891247381102    1.47844601723950
C         5.52474426960427    2.93693583049095    2.31080709524242
C         4.84043623745759    2.14710797948460    3.21813476570045
H         5.10241449687761    1.11364634511087    3.37229071371811
C         3.69438104380684    6.28657435399767    2.79281127650946
C         4.54184880638994    7.05920201090245    1.77853748672754
H         4.19927637529343    8.09078085816307    1.73424616491007
H         4.44794508182647    6.63385091420190    0.78181100864714
H         5.59008482114751    7.06807691299387    2.06866597469220
C         3.83856472646133    6.97353623173375    4.15834838273614
H         4.86796157597484    6.90887832309957    4.50553774130848
H         3.19506199242825    6.51747362907671    4.90553938641442
H         3.56918779305344    8.02412620989343    4.07754925955327
C         2.23035357524443    6.33983460962127    2.33458210916902
H         1.91367021295392    7.37371641248898    2.21762865022944
H         1.57131849730027    5.86280305685360    3.05459980178863
H         2.11604988396443    5.83364599068104    1.37802325453659
C         6.66396550001320    2.40413115407444    1.45485081301014
C         6.30002887419449    2.57540422858138   -0.02680442644809
H         7.09642552064069    2.18119372790781   -0.65404174431430
H         6.15295879883624    3.62056037108814   -0.28408989102507
H         5.38331850716041    2.03514503410948   -0.25445303884830
C         7.94028292413498    3.19501187333831    1.77369558428409
H         8.77367555865244    2.81006549212390    1.19028728436766
H         8.18637990031195    3.10164482689944    2.82936525211376
H         7.82366251119340    4.25017988396009    1.54267478636039
C         6.94514089782313    0.92048184431729    1.70757683175900
H         6.07390514496247    0.31047448857269    1.47954500317899
H         7.24176660156525    0.74738916224485    2.73937752303933
H         7.76053207673095    0.59313332942000    1.06599178969956
C         0.26715112350411   -3.32384769056871    3.79706431710050
C        -0.76443390289625   -2.78774191339715    3.02827657530559
H        -1.07127615471174   -1.77494197098624    3.23043461285095
C        -1.39101109778567   -3.55228057288748    2.05946320491569
C        -0.95074145100695   -4.86136869888138    1.86611942987455
H        -1.43464754529492   -5.45635811425980    1.11104319005909
C         0.08291348405760   -5.41745571078452    2.60540121131333
C         0.68544418851842   -4.62880693887965    3.57907773785947
H         1.50847507241014   -5.00822587611458    4.16443829090672
C        -2.53091770578846   -3.01973536459401    1.20401484104871
C        -2.88898224060042   -1.56906400666466    1.53858680621760
H        -3.70423615507615   -1.24122992975057    0.89705175042832
H        -2.04299895393218   -0.90641996095590    1.37018473483904
H        -3.21714174016499   -1.47450626439742    2.57117939493681
C        -3.77708119357403   -3.88563368290146    1.43527967668165
H        -4.05809142162324   -3.86734334121885    2.48625888536800
H        -3.60377356976035   -4.91853763018601    1.14688405270193
H        -4.61048867136990   -3.50512704493350    0.84888579847067
C        -2.11937946294720   -3.08141083550001   -0.27364458360601
H        -2.91565782819343   -2.68484960106979   -0.89961243120160
H        -1.91695302858637   -4.10097478856675   -0.58915457370965
H        -1.22264516829098   -2.48796211698256   -0.44000398852908
C         0.57607207355041   -6.84147197189214    2.39903333674786
C         2.05470813482991   -6.80037775823100    1.98889034981901
H         2.42269914139647   -7.80964688185572    1.81906631958020
H         2.66790463974272   -6.34119807226849    2.75911566161334
H         2.17552642901028   -6.22990054535433    1.07003997123451
C         0.42172235524196   -7.61720082190594    3.71498693850719
H        -0.61983517784994   -7.62057415646701    4.03056651994512
H         1.01955857395195   -7.17942405580754    4.50949320169275
H         0.74267643998555   -8.64754323375434    3.58021438567161
C        -0.20188601219805   -7.58659800190568    1.31113441374372
H        -0.09762407767215   -7.09514003775543    0.34632359556623
H        -1.25701282325186   -7.66200521903877    1.56446016409919
H         0.19097098217956   -8.59646312190583    1.21489055372060
O        -0.40300286461133    0.06133675591134    7.27199105286685
H        -0.77983756592049    0.07535891798140    8.15974786561489
C        -0.97972974233211    1.11996377437637    6.52416013752911
H        -0.75990525808118    2.09309264002246    6.97085119890219
H        -2.06245788152977    0.98930923529615    6.44842957317626
H        -0.54021158569752    1.08043151099335    5.53016790437437

