112
CSD_code = OKOLEF | q = 0 | S = 0 | Stoichiometry = C47H60N2O2Ti | MND = 5
Ti        1.05743468660724    2.19034914894951    3.42078590699510
O         0.89885620288767    3.78717433031176    2.68944818093720
O         1.57096857271733    0.54132331644773    3.77138518451825
N         2.32249416720112    2.25834493846017    0.49723356664216
N         3.77096511999916    1.54409677776341    1.90343173466417
C         0.82400187273983    4.65698437126742    1.70173609316656
C         0.69077591262817    6.05164486814203    1.93467104078714
C         0.50701005782606    6.90445896450344    0.85928451627316
C         0.48348668803185    6.47630034328230   -0.46110951771982
C         0.69865443545417    5.12576904456864   -0.68413271048952
C         0.86576878168548    4.22762208335977    0.35350190853687
C         1.06303096571964    2.77022733762975    0.00317456202776
C         2.49938559153474    1.95392681795207    1.79071668584731
C         3.47681348372478    2.04446324685933   -0.20469815255324
C         4.39340094087174    1.58359183540961    0.68603838612727
C         4.32402006734834    1.11779585072248    3.17121426473961
C         2.43437567820388   -0.45082872007456    3.85035088921202
C         3.80822286688912   -0.23981547141542    3.59256207010576
C         4.73245677567737   -1.26141443568265    3.74507375586527
C         4.35842965132402   -2.52625206482181    4.15812624680991
C         2.99878906003592   -2.74455637833181    4.36125763711311
C         2.03344182812046   -1.76929416560621    4.20249270786420
C         0.78155200715666    6.60141858819948    3.35547646922753
C         0.67219688057390    8.12922010840179    3.42975125879413
C         2.15511046749533    6.21118018093622    3.92180085759919
C        -0.34773328784462    6.01971447074106    4.21685804501263
C         0.23972689010347    7.40821954401422   -1.63791326110022
C        -1.01840009831622    6.94126145373462   -2.38370285410734
C         1.44960449220220    7.36334694526658   -2.58188702295665
C         0.02612940481019    8.86227476686141   -1.20875307072032
C         5.34533790575083   -3.65960337280112    4.38936577723813
C         4.99955557262784   -4.83553906661855    3.46500299168065
C         5.25351988707837   -4.10666589784879    5.85497484354037
C         6.79198303336952   -3.24352566000107    4.10940067327168
C         0.55264194000453   -2.10208605202196    4.35991688203316
C        -0.13411220130485   -1.81282788220056    3.01673983350775
C        -0.06456274159324   -1.25321637240518    5.47966432588571
C         0.28997712355104   -3.57299871900834    4.70451774879413
C         1.33221449775786    2.79429875956170    5.46884074158750
C         2.64650699930268    2.37343886570061    5.94523724580229
C         3.76829270036918    3.21524851432931    5.84706436172750
C         5.01993649712392    2.80001551731503    6.26166973121825
C         5.20257668657301    1.52905533852717    6.78255477534717
C         4.10686944311981    0.68881184283655    6.90981795285039
C         2.85327183879758    1.10659172899792    6.51487719296478
C        -1.07220492407269    1.88863993915297    3.44897194448607
C        -1.63327190966312    2.19203447050036    2.13541718837470
C        -1.77996479475004    1.19892430535254    1.15120370096479
C        -2.27543394719205    1.49598039296541   -0.10480551128631
C        -2.63579010396754    2.79382194210602   -0.43004030074216
C        -2.52070890551841    3.78613727707213    0.53146696866353
C        -2.04484060882211    3.48989032680817    1.79163379037988
H         0.37526829818710    7.95158083440231    1.05866502175104
H         0.72106780742194    4.74177880329040   -1.69409739855532
H         1.03457550685019    2.64517851352498   -1.08206680425625
H         0.26189627101214    2.16609318508088    0.45320239713344
H         3.55928925950270    2.22814033385186   -1.25646509672440
H         5.41425177628491    1.29189921349989    0.54603220447986
H         5.41280775416961    1.08734429342369    3.08433625856763
H         4.04747903713403    1.87131202812092    3.92312302513090
H         5.76782063686912   -1.03372574559567    3.54551211770994
H         2.68816790219079   -3.73114091021243    4.65803478774731
H         1.45940258324827    8.61324112200964    2.85628618557264
H        -0.29542935611797    8.47628363235950    3.07498284756620
H         0.77676028869855    8.43958416748010    4.46788750515871
H         2.30722355083934    5.13431055594978    3.84498170512160
H         2.94241782766678    6.71172275994544    3.35956519024574
H         2.23395422564013    6.50951820521783    4.96619723138430
H        -0.25061936869144    6.36254109513407    5.24606660377651
H        -1.31090161817597    6.35453937115320    3.83479643351943
H        -0.32249460670378    4.93108493838910    4.20374494252185
H        -1.87721751098497    6.96228196489520   -1.71654099580166
H        -1.22087750750560    7.59515457569928   -3.22970190884097
H        -0.90373149019191    5.92664973584998   -2.75458823892195
H         1.60401367727795    6.36430748039701   -2.97981026237513
H         1.29974935950868    8.04286802062809   -3.41846906124331
H         2.35096581163566    7.66225379920203   -2.05080614750228
H         0.90376777164323    9.25332730312086   -0.69938886697713
H        -0.15322695107634    9.47742779472452   -2.08850863536525
H        -0.83726447166964    8.95334498298081   -0.55419268704987
H         4.00542226526246   -5.22187675970335    3.67074538343407
H         5.03299942226332   -4.51786166195271    2.42488881092710
H         5.71383775261512   -5.64482404648195    3.60268506933745
H         4.25761387236624   -4.46751287422620    6.09584144260917
H         5.96363657262047   -4.90774035832315    6.05048999016394
H         5.48214292128463   -3.27231574606841    6.51450996229769
H         7.45562568894364   -4.08483546260550    4.29963758905139
H         6.91861109548961   -2.94436362339372    3.07138581042723
H         7.09360169235762   -2.42378411297446    4.75709403323171
H         0.07059646299230   -0.79038524721935    2.69818298973484
H         0.24264401575072   -2.49364221926211    2.25450924708524
H        -1.21077534205136   -1.95217939784897    3.10254184198638
H         0.39971453750586   -1.50650844662476    6.43151609196133
H         0.08271001682959   -0.19167408524514    5.28654267605526
H        -1.13259195983013   -1.45232157822541    5.55664089758440
H        -0.78453600251294   -3.73219211065211    4.77513507836150
H         0.67492191592650   -4.23739153767441    3.93420493303360
H         0.72964244707084   -3.84056797554847    5.66263041608923
H         1.20882019227944    3.87835437816029    5.56604219574113
H         0.53049391426888    2.27841714832480    6.01866918933228
H         3.64698699408500    4.21563178875705    5.44938423622385
H         5.86103408477479    3.47517968936480    6.17951199942852
H         6.18201587838183    1.20427359535464    7.10096880267296
H         4.23213651272786   -0.29880641334642    7.33080472071041
H         2.00730377355286    0.44702827956490    6.64823118835863
H        -1.30530038532344    0.86088087720890    3.74859214774178
H        -1.44677060016663    2.59076991230775    4.20901831868276
H        -1.51141879564014    0.17601489916301    1.38612015701796
H        -2.38298414121631    0.70680894002616   -0.83673069061750
H        -3.01707922706062    3.02582098524514   -1.41332104825510
H        -2.81435386078367    4.79922361307024    0.29606310020593
H        -1.98918233135595    4.27230319984699    2.53551682835753

