67
CSD_code = OKOTEN | q = 0 | S = 0 | Stoichiometry = C24H34N3O2ReS3 | MND = 5
Re        0.83811707527795    2.53216641696936   -0.29762881257938
O         0.71020307758474    4.14716155917972    0.12522083397803
S         1.21881923662517    1.85200573234748   -2.45584082489883
S         0.18598448354345    0.74012777545907    0.98244938971052
S         3.06832250716575    2.09111964575596    0.18142829109283
N        -1.43348509360339    2.44880682602405   -0.97173468311121
C        -0.46396504369344    1.91727929565369   -3.18224957459037
C        -1.51394535129851    1.56381036986111   -2.14011242493781
H        -1.32216049603200    0.53912484668760   -1.80714169693275
H        -2.51703382213105    1.59419185563475   -2.58548014130674
C        -2.21327194668264    1.93706261031921    0.16236204569153
H        -2.20391549386190    2.71719519441002    0.92897257610577
H        -3.25326439696945    1.74250587125558   -0.13512907250911
C        -1.63534388940112    0.66512018102717    0.76698386881385
H        -1.84044335089373   -0.21616164938830    0.15615737845270
H        -2.06306258686812    0.50093808572697    1.75616526732288
C        -1.81895851060358    3.83700551509028   -1.28988341889344
H        -1.09579288885625    4.23126622377518   -2.00724547641248
H        -1.69701737094686    4.41965467944457   -0.37223476285706
C        -3.23323076601288    4.04650002754895   -1.83513712925867
H        -3.35081711871083    3.58710549996565   -2.81728092621265
H        -3.96878759485992    3.61125486174629   -1.15825621666686
C        -3.50329302315299    5.54505245516811   -1.99830495915573
N        -4.67749138132711    5.78230693181862   -2.81710332519651
C        -4.70121649886330    7.12471759484845   -3.37330592110522
C        -5.87875386289192    7.25989989173170   -4.33180698300595
N        -7.11478279655673    7.00631879186377   -3.62094137229016
C        -7.10702637765448    5.67761386523425   -3.05738384260692
C        -5.91977871654901    5.55041460708452   -2.10340494218350
C        -8.30379186419233    7.50732853412810   -4.15370860874972
C        -9.39226087724111    6.69300497989797   -4.45039517937354
C       -10.58777299523009    7.21791536340461   -4.91314672688597
H       -11.41217563312951    6.55641085514665   -5.13327948190720
C       -10.71359248464363    8.57732846509552   -5.10218992740800
C        -9.64513005430401    9.41425718613620   -4.81320956443722
C        -8.45232657131331    8.90265748291171   -4.33211520491237
O        -7.37476704909909    9.68058795850991   -3.99038689411713
C        -7.49704245697288   11.07738216617068   -4.07618319265199
H        -6.54939690678792   11.47601015908251   -3.71564501071045
H        -8.30923185539969   11.45217590098063   -3.44492305802618
H        -7.65680044733837   11.40875517345855   -5.10805745944447
C         3.12545141997986    1.89099857363514    1.93439882578266
C         3.96229708208101    0.92893753733818    2.48606605874782
H         4.54525827105289    0.29663522896869    1.83447948218591
C         4.03169805548717    0.78916095875229    3.85994322283140
C         3.27526874886134    1.60577311002804    4.68450025942457
C         2.45178017648549    2.57399487114771    4.13148382872960
C         2.37716537176327    2.72334947345625    2.76010250132704
H        -0.61613288040955    2.90787816759774   -3.60889863031742
H        -0.47146572328710    1.18440174232297   -3.98924521749604
H        -2.64876824264023    5.99370983968766   -2.51127664185311
H        -3.58500883469595    6.02138352212939   -1.00595013600720
H        -4.79378023959786    7.88862606978437   -2.58300848043879
H        -3.77028510659633    7.29500093360069   -3.91876903322274
H        -5.75277548058688    6.53346309513463   -5.15225793543715
H        -5.89656691375595    8.26484898604100   -4.74645620936066
H        -8.02927173944238    5.51831503897021   -2.49563898477018
H        -7.01605560252634    4.90074170618179   -3.83523079300582
H        -6.04534456549430    6.27331145408015   -1.27751884100453
H        -5.91140067992944    4.54254892883046   -1.68454630580766
H        -9.30569464373366    5.62457327377789   -4.33010602190331
H       -11.63673765556720    8.99970481644866   -5.46858944703596
H        -9.76439100752705   10.47679596247211   -4.95472606752890
H         4.67574132286729    0.03536053575428    4.28864874725806
H         3.32833101914160    1.48922222686323    5.75689912882194
H         1.86706202450981    3.21768829725066    4.77212935020188
H         1.74420701756327    3.48169586250581    2.31127450415842

