72
CSD_code = OKOVIT | q = 0 | S = 0 | Stoichiometry = C33H32CrO4P2 | MND = 6
C         3.75921587839199    5.09009155615467    0.71089354342797
C         2.94169941955141    2.97046496138563   -0.38786825660479
C         5.19922860274601    2.95441687231267    0.45861522507180
C         3.28600440359765    1.50205439160697    1.89392633846549
C         3.69648181311656    0.21152494723550    1.25067932090853
H         4.31920920922352   -0.37733349836951    1.93066622953038
H         4.26053315017101    0.40830628925415    0.34286051129466
H         2.82513506003183   -0.39894642505684    0.99529681865124
C         2.18990580934951    0.13185621654006    3.58499180533673
H         3.08838346031489   -0.43908799171417    3.85120418256305
H         1.60695099352686   -0.44039496378053    2.85306865869909
C         1.34809255713869    0.38982634825293    4.82331480990038
H         1.93034525926954    0.93278740061301    5.56337100360823
H         1.02912623142356   -0.55578895206245    5.25326277162957
H         0.46833484058229    0.97279898695812    4.56061252078007
C         0.10508491285981    2.85200921023021    2.34205027249917
C        -0.94214275905253    3.04380211004636    3.23696231278849
H        -0.89511738134014    3.83880938366269    3.96743629301300
C        -2.05195122392418    2.21859486584505    3.19280632257977
H        -2.86078616003650    2.36833607988653    3.89365682089973
C        -2.13114813898902    1.20444810361844    2.25216544969432
H        -2.99906041934776    0.56227164022302    2.22275905180906
C        -1.09949191539449    1.02054203298061    1.34610560996465
H        -1.16409693690377    0.23656324459132    0.60518946543263
C         0.01206389361218    1.84263298360423    1.39021960344255
H         0.83007799963946    1.70810209609577    0.69140607899184
C         0.80977343036712    5.40940823565110    1.62323849165950
C         0.77008633220150    6.65676454432231    2.23286873328659
H         1.16929900457420    6.80399572353966    3.22628960572049
C         0.22313737027358    7.73920584249022    1.56422243933177
H         0.19856239966606    8.70668217604178    2.04535555879296
C        -0.28166321858191    7.58998745944530    0.28505358568911
H        -0.70260634374794    8.43922926222857   -0.23251279827960
C        -0.23386298850627    6.35069535311841   -0.33520282049348
H        -0.61506747803416    6.23230613817751   -1.33876740584532
C         0.31334143122291    5.27120695535701    0.32758425549088
H         0.37442914614117    4.30390673657379   -0.15636315625165
C         1.82212602593037    4.31733283422576    4.10208237173764
H         1.03980359152321    4.98872138572864    4.47035116010778
H         1.75280125325535    3.36568508736298    4.63732729214646
C         3.21056074571591    4.92145990323788    4.27710631229807
H         3.47921216051787    5.06272211946834    5.32970205711995
H         3.26680058674592    5.89824894485121    3.77890769052602
C         5.94467320787683    4.87045435608672    3.64462305098461
C         6.45121437844624    5.09644226442218    4.92199572545565
H         5.96402017537310    4.65595857891422    5.78183299769179
C         7.58390919530609    5.87034093666217    5.09055996501623
H         7.97456245360792    6.04369652967991    6.08305048259587
C         8.22092630793473    6.42002379251903    3.98898757396117
H         9.10667157435464    7.02299006695136    4.12491088257346
C         7.72653901351481    6.19015747080441    2.71599182121460
H         8.22601800662525    6.61202500307733    1.85656731313489
C         6.59279115547331    5.41531795785492    2.54311059941579
H         6.20246550931429    5.22064283552559    1.55249827295153
C         4.81877535309002    2.51645073652065    4.54467323104103
C         4.28052134677182    2.32779210508152    5.81054449195106
H         3.57486689390874    3.03485071777215    6.22386614689085
C         4.64458392186390    1.22103148843192    6.56131369717869
H         4.22039346513436    1.07815311805993    7.54548776137437
C         5.54456298662640    0.29840723470510    6.05777238179663
H         5.82133019543801   -0.56331029911434    6.64727044245323
C         6.08825066926638    0.48197054050890    4.79473033276318
H         6.79212000886632   -0.23650214191610    4.39967077245065
C         5.72323826980357    1.58157213037623    4.04343912807816
H         6.12257885506268    1.73356375300358    3.04630599800644
Cr        3.60458769156224    3.33151245839234    1.27977251429145
O         3.82514411699333    6.14523523805811    0.23451560250920
O         2.62634501072688    2.76200184874420   -1.48518918973124
O         6.15229697474925    2.77601036586303   -0.17968056455897
O         2.57003839285828    1.38794432444148    3.02312942906279
P         1.59874634596012    3.90943044333931    2.30263750192839
P         4.44081651466888    3.86678955329990    3.37191550010523

