76
CSD_code = OKOVOZ | q = 0 | S = 0 | Stoichiometry = C37H32CrO4P2 | MND = 6
C         6.72276035456292    5.13037642964822   14.26705060381874
Cr        7.22051258246764    3.52365052320163   13.48313648145373
O         6.36861884419808    6.06083661207958   14.86328729777059
P         8.50391131722638    4.54314890018703   11.80689742025039
C         8.56880622731629    3.26384897179628   14.69939347756888
O         9.32821073254959    3.05126933607150   15.54923492293614
P         5.51161662722481    3.90993341183517   11.94951918973299
C         6.27039412965741    2.81334569910588   14.87789133704859
O         5.76820002921605    2.49482100384475   15.87522394150264
C         7.65307677288880    1.85316781473999   12.56980167467164
O         7.74024019786930    1.92669904404240   11.22954296797999
C         8.02640204303603    0.59564611143417   13.21393827342110
C         7.99027126279078    0.78684071264276   10.41672075020987
H         9.06000820836869    0.68891135303892   10.21505940709928
H         7.46145689089454    0.95070546689445    9.47650748528176
H         7.62223418450291   -0.12565102787398   10.88942226450343
C         9.32237259542557    0.08748032593511   13.07165047811475
H        10.03124826549754    0.60708748838989   12.44078893490128
C         9.72146348863792   -1.03287014727061   13.77372839972282
H        10.73308559794216   -1.39765292468680   13.66678930521618
C         8.83238276613426   -1.68751208960217   14.60970155511859
H         9.14530228414458   -2.56625726533960   15.15371120793692
C         7.54143609962411   -1.20301299756542   14.74946108393424
H         6.84354613777400   -1.70807990374000   15.40114227557809
C         7.14337251858755   -0.07048598240403   14.06747344391695
H         6.13733747021751    0.30619042528628   14.18158630311979
C         9.93713162368605    3.70157088163496   11.04394023941260
C        10.16999019749271    3.53399254717381    9.68514591407723
H         9.47261400012035    3.91374246341194    8.95277857955468
C        11.30478817743189    2.86629507830103    9.25438018245285
H        11.47876088524994    2.73586965044278    8.19560762904189
C        12.21427046794801    2.36571554949582   10.17013742288333
H        13.09547401689331    1.84406442110936    9.82673145787419
C        11.99044089003827    2.53493415556628   11.52795501103035
H        12.69645384369762    2.14515065502948   12.24675175071436
C        10.85760641578854    3.19780882203655   11.96034476985287
H        10.66235864745853    3.32500018559133   13.01901823124917
C         9.38024327630740    6.11847109765197   12.14188747105169
C        10.00560173826986    6.83862419084489   11.12685618876349
H         9.97291716594135    6.48012021185874   10.10641464315449
C        10.68922705505368    8.00340879097984   11.41941463968853
H        11.16796732971071    8.55969091112092   10.62624550002207
C        10.76844356737946    8.45394550588527   12.72780449674453
H        11.30225027216706    9.36548891586397   12.95261332580820
C        10.17460599543143    7.72699090274923   13.74539238608275
H        10.24768592243449    8.06635564204987   14.76791837577325
C         9.48726948729409    6.56136245021954   13.45437970088346
H         9.03178833389986    5.98119650263416   14.24661884070813
C         7.45107777955116    4.99229651761626   10.34200441142719
H         7.86895351789868    5.83580190823469    9.78375314708748
H         7.41110736192522    4.10780959635751    9.69952050021622
C         6.05261381369263    5.30847909888762   10.85825700105371
H         5.34429673043933    5.50296827998908   10.04636284779798
H         6.07997319829326    6.19398901792672   11.50719393881747
C         3.83841444118917    4.49067730502799   12.40910961270779
C         2.89073946533568    4.80079353472586   11.43639007905527
H         3.13368762363038    4.68628171576824   10.38854380879247
C         1.63360362315904    5.23880237156490   11.80657169275610
H         0.90311633707992    5.48094022593548   11.04806112203502
C         1.30746601679454    5.36276095571740   13.14815734426028
H         0.32416536662183    5.70618043751902   13.43391871721969
C         2.23888215441635    5.03748360885258   14.11935182759859
H         1.98410163841596    5.12339376134757   15.16510900971448
C         3.49966718735939    4.59946709226000   13.75193187091950
H         4.22830806731875    4.33567938608208   14.50611957167760
C         4.98444380558038    2.60981784962500   10.77472908358169
C         4.98061413372031    2.67490027559410    9.38772772829347
H         5.29394696292509    3.57140470382184    8.87160203775841
C         4.57049640851075    1.57944290484331    8.64456543613503
H         4.57058659208011    1.63560434456779    7.56491723502636
C         4.16366003748605    0.41643356028293    9.27487751446254
H         3.84931096706513   -0.43408981814079    8.68815780740778
C         4.16151554982435    0.34563431811832   10.66001852397173
H         3.84422703399850   -0.56049394071031   11.15523155397885
C         4.57067626530975    1.43570173859979   11.40130803476202
H         4.58779098195004    1.39830242624279   12.48501130186000

