47
CSD_code = OKOWUG | q = 0 | S = 0 | Stoichiometry = C14H24Cl2HgN4S2 | MND = 4
Hg       -5.17180733764516    6.77350634016908   10.72491687659310
Cl       -3.29623998077489    7.60641765654828   11.85138011112685
Cl       -4.96096260704180    6.54014998934823    8.38620669872980
S        -6.69423624433872    4.66715655862061   11.21050843026228
S        -6.72490229208825    8.97267269173196   10.89002906723448
N        -8.04677860231800    5.18118790110073    8.91418248018719
N        -6.53116356401892    3.63120303455502    8.69971515985757
N        -5.02233168167519   10.23843783092091   12.56151689667370
N        -4.55377334470411   10.55343450060826   10.45605573555928
C        -7.08320234243509    4.50257943470502    9.56246656399547
C        -8.07435094319203    4.75516062350823    7.61592827611949
H        -8.74853589198399    5.17361819943503    6.89805493792266
C        -7.13554245352195    3.78922689441313    7.48382856013952
H        -6.84999522804643    3.21826342202594    6.62624371906224
C        -8.84565821381315    6.22874505275455    9.48460306471457
H        -9.79689293051477    6.28629239053508    8.95977911152818
H        -8.33046155421843    7.19032089307250    9.40741074974633
H        -9.01386530783405    6.01369600196578   10.54008718999859
C        -5.43757732627009    2.72926456225287    9.00804393166634
H        -5.11177407897315    2.99620754323396   10.02039934496544
C        -4.28828907965220    2.94649252946025    8.03003571207513
H        -4.53903536133859    2.57333720143350    7.03995941911046
H        -3.40451235181471    2.42294309150227    8.38321242303103
H        -4.06035590728751    4.00758193814492    7.95738015655007
C        -5.94211151339023    1.28894898699109    9.00389244229515
H        -6.74928723904394    1.16842390998429    9.72274016612440
H        -5.13247374828108    0.61850768057925    9.27693376999678
H        -6.30550109240429    1.01150896349917    8.01664952456444
C        -5.38811527545007    9.92615853857207   11.30524761229236
C        -3.91691718642992   11.03991981570443   12.50164876603280
H        -3.42663303674151   11.39319293277891   13.38455175670514
C        -3.62950504014137   11.24067037104126   11.19503617368783
H        -2.84367815207581   11.80601505196764   10.74096698511708
C        -5.60116100897303    9.67137114432941   13.74550529679597
H        -6.66198115658299    9.49197279806186   13.56998126404762
H        -5.46927697589027   10.35635260120008   14.58037609384519
H        -5.11448118980785    8.71835230932015   13.97118444973990
C        -4.57774258986640   10.43053538124654    9.01005916424305
H        -5.38778892782455    9.72712222453232    8.78211296627182
C        -3.25808752149122    9.84827742104556    8.51604699684708
H        -2.44152916420848   10.55504173197847    8.64414964051300
H        -3.34418618077651    9.59494504091686    7.46344909928321
H        -3.02404697962847    8.93792944567620    9.06546787103806
C        -4.88816885051666   11.78410832232134    8.37897218555962
H        -5.83429726810300   12.16924974786546    8.75265723955991
H        -4.96045184969502   11.67310789246247    7.30103338404732
H        -4.10303342757233   12.50339140526516    8.60189253538662

