61
CSD_code = OKOXOD | q = 0 | S = 0 | Stoichiometry = C20H34ClOP3RuS | MND = 6
Ru       11.72250768570047    3.59884695310115    1.53268859830028
Cl       11.37698479600518    2.73538997558926    3.72264239037835
O        12.17478282861401    4.74956486943606   -1.18018979190930
P        13.77687213970600    2.58274084839617    1.86962282871092
P        12.29829074791586    5.71495474719608    2.36670419588902
P         9.42417257365368    3.85356562069740    1.65658361495961
S        10.48316970918136   -1.21974083755425    0.25150705077118
C        11.24455739701548    1.74830290310420    0.76551629096562
H        10.96404270907921    0.96753323009458    1.48310036334262
C        11.25017901428466    1.34326474133591   -0.51013271383853
H        11.50940528251875    2.01382162679678   -1.32379616580073
C        10.92925357058216    0.00524837408207   -0.93115952624020
C        10.92988598771389   -0.49498484752508   -2.19801049899492
H        11.17691141100146    0.09881032490011   -3.06101474464416
C        10.57771149979585   -1.86957162913998   -2.27398878201000
C        10.48093325212241   -2.69987080242148   -3.39280240000544
H        10.69030255779482   -2.29848897178566   -4.37373783018112
C        10.12081962398115   -4.01909625439347   -3.22977737828816
H        10.04581099381441   -4.66488564099946   -4.09273467416983
C         9.85053070915576   -4.53755632547864   -1.96417933426716
H         9.56979198992234   -5.57521752987749   -1.86107933451603
C         9.93847921234581   -3.73907078395483   -0.84075100156963
H         9.73137239800952   -4.13219862825210    0.14304019770529
C        10.30156994807202   -2.41338463681581   -1.00380646359284
C        15.04194862755294    2.77288094371694    0.55823582585219
H        15.94572479774933    2.21771810184063    0.80836962617349
H        15.28088402744400    3.82623377097659    0.42004987249731
H        14.61921521866831    2.38829250205499   -0.36973955901545
C        13.75499900191374    0.76535751417977    2.05123872828127
H        13.41813595365358    0.30352954648002    1.12487040794927
H        13.06674728164496    0.50352951158298    2.85478177485576
H        14.75874366933362    0.41590556053842    2.29690419970698
C        14.72016711514481    2.99200541100512    3.38873971376275
H        15.63982666956998    2.40673055256150    3.41451412705212
H        14.09425549963385    2.73410483306065    4.24333107901129
H        14.96251676391037    4.05176154706350    3.43355493870522
C        12.33844109466510    6.04696750571143    4.16473935059776
H        12.61998500914053    7.08172887365630    4.36205753293764
H        13.04870255342417    5.36696977635776    4.63321724009184
H        11.35377258577179    5.83787292618110    4.58124339062581
C        11.29741002871364    7.13173817608865    1.75971217887310
H        10.26006435770567    7.04021861688073    2.07386997479170
H        11.33333282982689    7.12966304322384    0.67003303793022
H        11.70777273932973    8.06927876571438    2.13617607795097
C        13.93257414429988    6.36503172955247    1.83409253490101
H        14.08532556127225    7.36985764556500    2.22910116416813
H        13.94354633386118    6.39611626655759    0.74430908705369
H        14.73953414977863    5.71762808388051    2.16984861598539
C         8.57952401181381    4.70504021982954    0.27136306340073
H         8.81345704366434    4.16417629958959   -0.64538267597140
H         8.95106530411593    5.72417071117651    0.17731729304977
H         7.50083532248213    4.71755930733921    0.42593887111572
C         8.45854302037075    2.30571164519459    1.73683457639565
H         7.40209243207395    2.54314201789775    1.86904457842147
H         8.81329072768352    1.71821854401506    2.58360175416679
H         8.59987247782854    1.73548653618455    0.82011322525096
C         8.71500601351180    4.69519383057946    3.12356353665939
H         9.07802809307350    5.71744880071257    3.20809341201690
H         9.02489396963153    4.13555313990166    4.00625392237796
H         7.62709181865556    4.69914671587503    3.05073299671632
C        11.99223571311245    4.26965370075069   -0.14577036548266

