93
CSD_code = OKOZET | q = 0 | S = 0 | Stoichiometry = C38H40N2O12Zn | MND = 4
C         9.12110402144364    6.44393345346200   11.24675496939350
C        10.30969462829641    5.83526462717641   11.78372918073500
H        10.16749140518693    5.17023166776657   12.62320737854792
C        11.53784892019701    6.08469551734734   11.27928960899004
H        12.41496203723126    5.62549164380339   11.71485107200770
C        11.71534567543406    6.93894894307502   10.15723164460205
C        12.99918805120226    7.16302221494310    9.63585405865115
H        13.84189587601064    6.69096189007403   10.12075412404818
C        13.18442408392006    7.95336060219331    8.53188454429577
H        14.17314641578834    8.12251071007149    8.13332729108810
C        12.07314862611887    8.52864501477585    7.91571561847264
H        12.20754309206489    9.13557483200831    7.03232834620041
C        10.80930583168759    8.32859399131170    8.41456334029625
H         9.98377523808340    8.78116459876878    7.88851253621344
C        10.58182249070086    7.54517378053834    9.56086342625501
C         9.27261943670537    7.33296447724223   10.13557053644704
C         8.16632421398173    8.06912202075958    9.66018093333324
H         8.34031078389410    8.82356354146360    8.89021096013966
C         5.88760450893759    8.73262353169071    9.59441706687297
H         6.24038909116171    9.63001644411261    9.04511711034917
C         3.97422839241386    9.79120851043555   10.45649686213336
H         4.19213882803844   10.71638521810964    9.89631585983865
C         3.23744987474574   10.15480300426217   11.74842140626628
H         3.06956665507036    9.23708211848582   12.33114047644698
H         3.81025344635362   10.86528050862818   12.34565311235311
C         1.19900344339479    9.99127439077695   10.60132759109175
H         0.96554401344569    9.04302582294962   11.13429928265557
C        -0.06410606875543   10.77417989662203   10.29172834475569
H        -0.70099657003466   10.18127374935526    9.64425683387674
H         0.20934661029108   11.69463127402713    9.78620662471721
H        -0.57982979054645   11.00727287138152   11.21721444224844
C         3.01314032185453    8.93782307070833    9.61492577895135
H         2.76772661828866    8.01587193803847   10.16789637509217
C         3.68580294880633    8.54399224460376    8.30331336815372
H         3.87410772501020    9.44638723187937    7.70058866273650
C         5.02343476740689    7.86793250856447    8.64708288389127
H         4.80734442382504    6.92663297672230    9.17136028382700
C         3.69852633731611    6.28001535232371   12.06385493207575
C         2.52589396146510    5.78578846524945   11.39563464403312
H         2.67539341621658    5.35366769592973   10.41695422933729
C         1.29422345930813    5.87096397835638   11.94563974794182
H         0.42729034936152    5.51309194135782   11.40753815357207
C         1.10455693420946    6.41048789360696   13.24595914543794
C        -0.17798113034475    6.44872887536125   13.81626228967538
H        -1.01209031462269    6.08445327811311   13.23343205594290
C        -0.37082479447112    6.92475615377002   15.08642020684436
H        -1.35804429346047    6.95060443846338   15.52248254968615
C         0.73144802902200    7.36109288309227   15.82220867495903
H         0.59131786454921    7.71232578995807   16.83416498996470
C         1.99272443169914    7.34275760147804   15.27940889111702
H         2.81444847972924    7.66527582263381   15.89842703482872
C         2.22588033264300    6.88890947377819   13.96814317798971
C         3.53204920650945    6.88212085033065   13.34856638189190
C         4.60677802303495    7.54576271841907   13.97864150993749
H         4.41303441510821    8.06944122803276   14.91374468225474
C         6.82897770697402    8.34318836187881   14.18114237130820
H         6.42244269079757    9.13457420059996   14.84079336037583
C         8.77325460705924    9.52831419164900   13.55239304847265
H         8.55890123350190   10.32651955534385   14.28282176906301
C         9.52697522467533   10.12939653651820   12.36377718451032
H         9.64995295720202    9.35622575592266   11.59250456740979
H         8.99482002914311   10.98349836428001   11.94452578473951
C        11.56494998366631    9.61122091218822   13.39625262797735
H        11.72009608986956    8.78817828373159   12.66434817481742
C        12.88579990663114   10.22924712580977   13.81775852130940
H        13.50951470907134    9.47202995564764   14.28110792709365
H        12.69013256484874   11.02497462592757   14.52940449802350
H        13.38224985101970   10.63889306019567   12.94466551657005
C         9.69340006381405    8.49350717895845   14.20984390175846
H         9.85034641958367    7.66296768468619   13.50159166597454
C         9.00748090580527    7.96185600165048   15.46313552667880
H         8.84584796529901    8.79573546843443   16.16667903859076
C         7.65153064125920    7.36814209323245   15.05140229628535
H         7.84089196010680    6.46261246386063   14.45597435866235
N         6.95341061273412    7.93187010080910   10.09061041726013
N         5.81042778425134    7.61129269345479   13.50959932036251
O         8.02074915617267    6.16528133297492   11.82642408270236
O         5.17194221938429    9.11124509208335   10.74750208738156
O         2.01700983942317   10.78141187134383   11.43278614881472
O         1.83835916410601    9.68138228767606    9.38936318467469
O         2.86511262966125    7.65236040363720    7.60361470529821
H         3.36685998175776    7.33795570355945    6.84033605581619
O         5.70079697062373    7.62631499276010    7.43499672934576
H         6.46509634921658    7.06687518646968    7.61639899327298
O         4.80670555993114    6.16736487948612   11.43446947402967
O         7.57839408462642    8.91729953325758   13.13101613876788
O        10.78029277402186   10.60752962415251   12.79746478358896
O        10.93913648504867    9.07392745901368   14.53998869663449
O         9.74791277574453    6.94520207308880   16.09125259359615
H        10.65841389662802    7.25480114082920   16.16807865336315
O         6.86934641993046    7.07488585006884   16.17817652307575
H         7.38468086231566    6.47786245736682   16.73544140959264
Zn        6.38896214916445    7.11469021907357   11.75278262933413

