89
CSD_code = OKUDUV | q = 0 | S = 0 | Stoichiometry = C46H38O2P2Zr | MND = 12
Zr        5.68606760482329   29.43496675315679    2.55774763351686
P         3.36696076234862   24.06483794173290    6.76183736767403
O         5.17315607250901   27.59544478867876    2.31272787362808
C         4.73356284447403   26.78135985605094    3.26384085277257
C         5.13077170892957   25.43559201117015    3.28964538114377
H         5.77851679134628   25.07510038844543    2.50207765616674
C         4.71684893785558   24.59669901454817    4.30283099281985
H         5.04614855978838   23.56746185923961    4.30803971674240
C         3.89032755313834   25.06723741388580    5.31829661933500
C         3.45282524566598   26.38966536435816    5.27301457239244
H         2.78761068673030   26.74654296112757    6.04847004530287
C         3.86611218388357   27.24084647304794    4.26962303528352
H         3.51493748285994   28.26833588395903    4.21602658395528
C         3.55289562727277   22.38733485796462    6.03520681923066
C         4.71914980542527   21.63144011394272    6.06710925208309
H         5.60311451154883   22.01741115681265    6.55528039177630
C         4.75228285016255   20.38244573013313    5.47241952302000
H         5.66385341300778   19.80227263569701    5.49918032475774
C         3.62770791801637   19.87655054643762    4.84219260288879
H         3.65985547640713   18.90091031515587    4.37959226476283
C         2.46163594499161   20.62360402957529    4.80861344411676
H         1.58114855346741   20.23157951157265    4.32020671042612
C         2.42480751508563   21.86963128110760    5.40554531133182
H         1.51692531300905   22.45767374761944    5.38756740272416
C         4.89956537701446   24.16341431590099    7.76587077090873
C         5.87105480028335   25.13986457367053    7.58092062434070
H         5.77325110232701   25.85249492502399    6.77406624693038
C         6.96717196439616   25.20000915123636    8.42379680722458
H         7.72127269631306   25.95804669883041    8.26638048096856
C         7.09966511655507   24.29575955574638    9.46363405586140
H         7.95833385899253   24.34345021322882   10.11728994589949
C         6.12298639472383   23.33377458146391    9.66886120271790
H         6.21700232785173   22.63221793229999   10.48534210451509
C         5.02531954597744   23.27500995824643    8.83235457053227
H         4.25696927040327   22.52962850821066    8.99147949688329
C         4.88260184060484   29.51799717189341    0.17737855268506
H         3.97288350670185   29.02450793587289   -0.14415974916280
C         6.18563912679008   28.97374322926347    0.11486554383491
H         6.44162365536459   27.99396042119219   -0.26945033024220
C         7.09547163037917   29.97122403364816    0.51445204679886
H         8.17474111390051   29.90584857953896    0.44124055419404
C         7.89729445737033   30.24967232973290    3.45760838348661
H         8.57241200130411   30.94317309305681    2.96999302105808
C         6.92977125503033   30.59545112033840    4.42468721685939
H         6.74770133176180   31.59400221710717    4.80302680917905
C         6.41169322534661   29.39752713477580    4.97287252894913
H         5.73316337619153   29.32679465508405    5.81608210802340
C         4.98982431211652   30.85901965734383    0.60431406650591
H         4.17509831558917   31.57369683390528    0.63647810032576
C         6.35798213421656   31.13812758285804    0.82924225013960
H         6.78373985717557   32.11670407358324    1.02599912834725
C         7.97357905517194   28.83868188695345    3.39771964677564
H         8.70322098006585   28.26203807795184    2.84036727448183
C         7.07064059758109   28.31541965263829    4.34887626420376
H         6.99048225831182   27.27325165325261    4.63402314892069
P         3.38325080830458   34.74663255485596    7.00355211818936
O         4.04920181600604   30.18517061615896    3.21263299211668
C         3.88583741891751   31.22032963652726    4.02921929879554
C         4.47512534945211   32.46509723580622    3.74300429177481
H         5.05529026334358   32.57418665981309    2.83069129319426
C         4.31758844402771   33.53570924503493    4.59863173003180
H         4.78523637003727   34.48119223141661    4.36137531066999
C         3.57105294049295   33.40640552821112    5.76605591844238
C         2.95546961257890   32.18781550663738    6.03757133378564
H         2.35935249301503   32.08817701258804    6.93440479069938
C         3.10609638195825   31.11001956025943    5.19055755026113
H         2.62309316086825   30.16758461178310    5.40937772387986
C         3.69176904798814   36.18393397279674    5.90035185324133
C         4.89971599422890   36.86036329330750    5.78227883053434
H         5.75696703938711   36.54824481578591    6.36169911233639
C         5.01058244219387   37.93605832690087    4.91799704267923
H         5.95455257838952   38.45521629314895    4.83084616181760
C         3.92286154994205   38.34625448746425    4.16631077271964
H         4.01587584221190   39.18590781882600    3.49330707080545
C         2.71427809610109   37.67811012769466    4.28165451900693
H         1.86208029854737   37.99568402416699    3.69829902014818
C         2.59925638680984   36.60803034237422    5.14778400108724
H         1.65804391708784   36.08363186158790    5.24681401304422
C         5.00633276192305   34.61038299111016    7.84819765720347
C         5.86246545402488   33.52527845681512    7.70477233792873
H         5.60938930784047   32.72230897547265    7.02712653457978
C         7.04042708400136   33.46747224673602    8.42933443285821
H         7.70257054505469   32.62252548461524    8.30495004297728
C         7.37042115598748   34.48374771065826    9.30939477855330
H         8.29188492979632   34.43633892006858    9.87085748975539
C         6.51080089635251   35.55850938627972    9.47490731576903
H         6.75918052485261   36.34899337678594   10.16841853202841
C         5.33199306056670   35.61585748970340    8.75697469264580
H         4.65287617924872   36.44837280936351    8.88764418651965

