69
CSD_code = OKUNOZ | q = 0 | S = 0 | Stoichiometry = C34H26N4NiO4 | MND = 6
Ni        5.69096490531943    4.28146241017656   19.29637469029577
O         4.60442734893894    1.68643408460774   22.86666085535503
O         4.33644254860049    4.83981267278644   14.98613449215907
O         4.61133913294691    4.43830007005579   17.55082981503946
O         5.12573551381188    2.75054461459310   20.54133108217773
N         6.87837168066580    5.80997620193522   18.23321932860901
N         6.89394266230718    4.76327055462860   21.09417873618912
N         4.52525492349458    5.44217695693247   20.09611791389612
C         5.89661011065046    1.82374857062101   20.90883627420478
C         7.03426103158514    1.38482623604634   20.15332577543102
C         7.39218365589793    2.04161329650419   18.95835821003857
H         8.19363374840305    1.56960386310691   18.38531700016952
N         6.91147006223347    3.16865037320526   18.51369924658966
C         7.29452809512061    3.67658042475246   17.28219170366870
C         7.64779335272251    2.91466404279954   16.18558783498293
H         7.64878036322425    1.83678060103041   16.25041635059079
C         7.93818951463332    3.52134537550239   14.95870596462433
H         8.20099309643436    2.89397241449216   14.11922356931786
C         7.85851572029227    4.87844616320295   14.79857317937025
H         8.04613308324976    5.33606282800438   13.83822774216387
C         7.48953087460293    5.69647216513158   15.88507981285126
C         7.31229162743152    7.09264373586760   15.79157150271811
H         7.48193423184461    7.58687171289491   14.84504161903898
C         6.91957632301089    7.79310928820385   16.89982399304197
H         6.76160767227968    8.85991042739880   16.86188020285618
C         6.73316173662954    7.10637962793623   18.10979051953991
H         6.46063929235492    7.64916743578625   19.00585257941747
C         7.23212793484474    5.09479646565897   17.13984121309545
C         7.80730652330027    0.29143869273593   20.61065013172869
H         8.64556003417650   -0.03495056915786   20.01107517991409
C         7.52147468046420   -0.32348384448108   21.79045056035817
H         8.11883595944252   -1.15129080978983   22.14101955134705
C         6.44590564319409    0.12169605341359   22.58412150208826
H         6.26594662887810   -0.37292891282095   23.52668107868711
C         5.65289144640511    1.15417504829927   22.16992043512158
C         4.31396482790228    1.15953023242888   24.13193217138802
H         3.47346462123771    1.74093674863313   24.50831971532260
H         5.16351797683637    1.26511560508979   24.81697431605381
H         4.02724142261633    0.10333007122176   24.07622630300240
C         8.04529862686210    4.31303829699513   21.52815539949026
H         8.82648600577577    4.19311435619822   20.78840135750367
C         8.29497963015155    3.99817247014374   22.87317630701838
H         9.25984649316485    3.60941426331563   23.16020608053064
C         7.30765356221281    4.20434768880326   23.79821694982595
H         7.46530134566340    3.98981379172224   24.84614204823603
C         6.05631366857621    4.69725885259895   23.37324171699258
C         5.89338005797883    4.93972255292795   21.98850101589308
C         4.62480418491912    5.34350970952744   21.47517861210504
C         3.67984770775188    6.26316921396011   19.53866588156039
H         3.13918051408215    6.95422029106020   20.18965079975064
C         3.42811890416485    6.40971417550317   18.15943573879171
C         2.65109955839924    7.50031390173589   17.70188816411986
H         2.24273481501232    8.18542219142732   18.43167843721118
C         2.43954536811825    7.70094593018655   16.37277372243217
H         1.85388562194474    8.53897921900049   16.02677032303129
C         2.99580149499397    6.82263111717081   15.42182890518010
H         2.82865279280481    7.02852541953387   14.37533853713391
C         3.72848029348834    5.73927869458774   15.81648140222944
C         4.22805014696143    5.03637015918964   13.60319828647965
H         4.79660399371811    4.22868285541293   13.14436616654928
H         4.65522375342078    5.99902824692575   13.29825752618810
H         3.18683159415899    4.98303902887312   13.26571397258244
C         3.95917718607429    5.46434686314908   17.21999499041021
C         3.57998724979290    5.52896821796652   22.35939603300048
H         2.59596453400916    5.78006789080464   21.99238092961941
C         3.76109315186323    5.32474102530106   23.73164914085617
H         2.91915662408924    5.46956574642598   24.39314874597904
C         4.96441704971600    4.91288032398734   24.23760427033080
H         5.08593406213698    4.71992657611668   25.29349638652773

