60
CSD_code = OKUTIZ | q = 0 | S = 0 | Stoichiometry = C26H25N2O5PW | MND = 6
W        13.02555792381968    8.27990667884517    8.63942195628471
P        11.15890446517390    8.52528020644285   10.39213238536929
O        15.08907890340212    8.60264234478455   10.98671351294218
O        15.37807681268071    8.12804748282151    6.58874892270230
N         8.68267607595830    9.21539222899348    9.30018763402183
O        11.04853223691013    8.32324606523508    6.21574252461718
N         9.11482167210231    7.08018161200849    9.18648728082713
O        12.72910769273557   11.39478484017817    8.42603857702416
O        13.28692374835683    5.17809646603274    9.04886007263169
C        14.32583481317571    8.46529995059033   10.14802071898417
C         9.62533388761073    8.27707572506940    9.57749113893994
C        14.51592524548519    8.17868709627759    7.34252519113802
C        12.88659550128387   10.26195504395261    8.48787752644048
C        10.69102970749414    3.84283240651884    8.36831435488376
H        10.95369901543637    3.26782581992907    7.49223363801891
C        11.00146903256218    3.34933883366081    9.62642020105763
C        11.74724019521432    8.22237228765144    7.12213515552478
C        13.12858792015190    6.29916221314041    8.88247494569105
C         7.87228292463979    7.28437012851504    8.63664759048135
H         7.28509000173567    6.47250163772807    8.26074625668344
C         9.74454714544540    5.81856953592562    9.33126563305307
C         7.60394582771289    8.60550553533330    8.70928242399981
H         6.74594009562812    9.16494693395299    8.39826841171746
C        10.06522739365496    5.06836951188871    8.19619523475457
C         8.77831351988773   10.59992835610812    9.59701649767324
C        10.62229651299572    4.08940295580909   10.73557069308651
H        10.82386867456821    3.70472779637552   11.72483735528636
C         9.98113977008204    5.31297736379340   10.61443460979861
C         9.18933721071001   12.85462133856661    8.93242302810959
H         9.45096759289638   13.56728370382279    8.16404016463801
C         8.53419445254336   11.01705835470679   10.90904336518660
C         9.52359301245245    6.02874757828133   11.84640008613373
H        10.28345605780148    6.74198356117332   12.17234356802337
H         9.35649571762219    5.31712837727943   12.65133914927604
H         8.60152081905877    6.57927453668836   11.66706180165010
C        11.73588346847361    2.05491893395769    9.77616213161293
H        11.43067352912411    1.34316882077822    9.01238386658932
H        11.56733224552383    1.61988415170661   10.75806091570154
H        12.80493960125637    2.23328613805058    9.66136159980712
C         8.63148158482980   12.36691088563169   11.20235255401354
H         8.45079455506726   12.69822982206334   12.21460257752626
C         9.10229585421059   11.51107380780100    8.59362717346882
C         9.73939629776989    5.51275201938359    6.80153679509294
H        10.60615171901055    5.37649557628963    6.15744524537641
H         9.43654749841338    6.55371594029477    6.75340122420080
H         8.92927037155571    4.90202271377314    6.40043461651989
C         8.96170626768881   13.29787830678167   10.22621626378124
C         8.19690656263949   10.01406238934302   11.96802030014396
H         7.36688113909437    9.38064260436463   11.65546784107891
H         7.92625211128692   10.51221788229472   12.89469614820592
H         9.05864064363054    9.37067771977906   12.15834004888389
C         9.36296465284149   11.08895360485751    7.18079961342706
H         9.36191528589496   10.00893604064208    7.06863953918035
H        10.33061752246094   11.46672396800080    6.85489539475559
H         8.60419871728043   11.50568642712365    6.51867493120865
C         9.09387259553395   14.75080949366521   10.56171365362616
H        10.14820407388983   15.01714999532824   10.63559305366387
H         8.61741232467351   14.97778861706950   11.51187573100949
H         8.64848101292614   15.36835291374706    9.78466226764636
H        10.95866878589324    9.89863671910076   10.50309490715597

