97
CSD_code = OLAFUD | q = 0 | S = 0 | Stoichiometry = C49H43ClOOsP2 | MND = 8
Os        3.00630474741238    5.89280517461546    7.07869195832473
Cl        4.80163725286005    4.90984211886568    8.27796356218931
P         4.11852814171633    7.85531275925519    6.75381389735745
P         1.94879736087572    6.38362011969866    9.02657272296069
O         7.23817864549799    3.08398575132710    0.88889850813360
C         3.07870948866892    3.99676906958089    5.63938815864624
C         3.04946493858091    5.17960951239412    4.87056485904113
H         3.74373796935182    5.43561667453380    4.08263100694516
C         1.82443216229413    5.86504518893283    5.14683359154752
H         1.43833192758751    6.70432694887038    4.58425476710932
C         1.11319852821165    5.10372505346368    6.10304114693169
H         0.09632535951042    5.27207304099172    6.43156376611193
C         1.90691188759541    3.97508796853367    6.44277335539467
H         1.58019586813728    3.13987589021717    7.04641344118455
C         4.10865061849050    2.90184808071389    5.60557958040366
H         3.58104933817034    1.94150229936793    5.65312481516588
H         4.74223179361917    2.96420419382416    6.49767826059983
C         4.96889897666741    2.94526805227717    4.37488945430452
C         4.39357650802080    2.87421503449367    3.10891918709386
H         3.32045987733537    2.78178824203851    3.01572707168254
C         5.17197312658478    2.92469266843000    1.97401959765210
H         4.73106268899730    2.87460882319566    0.99063919254742
C         6.55933596665924    3.03786890341542    2.07357118746152
C         7.14299143591127    3.09232927136634    3.33193688927556
H         8.21415907634336    3.16171759294480    3.44563171336734
C         6.34632015576241    3.05139949099991    4.46589262734651
H         6.81359471191271    3.10194186760395    5.43937764031133
C         8.63714465514944    3.20972179000594    0.92437025359516
H         8.95792763949798    3.23337932168739   -0.11618557101969
H         9.10701350693174    2.35748989300798    1.42665790409683
H         8.94583060349799    4.13752847488137    1.41808166079010
C         5.55714909852748    7.77745639638530    5.61928490926036
C         6.19769679562103    6.56486738757957    5.40311335767922
H         5.83080562832852    5.67135513430584    5.88842061378219
C         7.30847963508179    6.50086048478754    4.57996789225784
H         7.79519366902572    5.55221906687574    4.41335319454197
C         7.78827627653168    7.64711006355082    3.97167147808509
H         8.65208577842909    7.59821421014875    3.32443075275315
C         7.16444454351312    8.86425889060835    4.19999772645937
H         7.54434683404453    9.76242641089682    3.73449917712987
C         6.05863965412645    8.93296400602319    5.02477593154113
H         5.57676438145613    9.88363241025669    5.20562926295731
C         3.05360066791507    9.08160817873180    5.92199698141049
C         2.94700214355771    9.10334159783778    4.53406103521792
H         3.57908658584901    8.45658777445441    3.94060189273547
C         2.04561145369203    9.95016788256127    3.91535377284068
H         1.97420331876871    9.96392804931900    2.83712339010495
C         1.23328454258468   10.77779279375633    4.67400516852319
H         0.53284520835710   11.44082955829018    4.18769452099105
C         1.31666453218184   10.74586865547099    6.05663073016202
H         0.67789534061741   11.37997534099284    6.65433635598613
C         2.21216853632825    9.89442111531883    6.67642413871699
H         2.26621667223833    9.85299728012260    7.75524193403954
C         4.96395783308444    8.83606085168926    8.05251052117995
C         5.68028381259377    8.12241973697273    9.00917915859859
H         5.63705434527993    7.04295958560140    9.00760725183289
C         6.43665928156355    8.78741270898665    9.95594702809759
H         6.98894989150442    8.22274676388163   10.69202385087797
C         6.48296240983734   10.17116736303070    9.96016617094765
H         7.06995159535102   10.69410024705932   10.70122010280151
C         5.77855721946083   10.88602619571396    9.00596819473555
H         5.81791993632534   11.96624132051813    9.00125098350689
C         5.02970074899420   10.22573889907795    8.04842984400772
H         4.49556278210219   10.79899224142021    7.30422711783464
C         1.16240533796686    4.87588642899607    9.71233148030955
C        -0.19722982221189    4.77754994150444    9.98772630630399
H        -0.84790169282303    5.62697849704700    9.83979606801783
C        -0.73125795364086    3.58519473362232   10.44600027593047
H        -1.78955357506780    3.52131806858858   10.65544890054523
C         0.07933767810534    2.47844359590395   10.62962559372755
H        -0.34298402979497    1.55102042209313   10.98810972983389
C         1.43039273562337    2.56121768064439   10.33343038261502
H         2.06609456747927    1.69598439978205   10.45484121515138
C         1.96673827358165    3.74660529999074    9.86699984474164
H         3.01264545373572    3.79467887305431    9.59385832537335
C         2.87101835807390    7.05576040817206   10.45948528807605
C         3.51808123878951    6.24407432458878   11.38330893079374
H         3.45343001567881    5.17069315588165   11.30046010277521
C         4.24487245824965    6.81047962939994   12.41598521417355
H         4.74344947615640    6.17138300620548   13.13003945074961
C         4.33281880855937    8.18627644160525   12.53879869309553
H         4.89562587421888    8.62409437954451   13.35008083231438
C         3.69857124472819    9.00156513196463   11.61565393641314
H         3.76818189552300   10.07611000797442   11.70128693064437
C         2.98248960430691    8.43987684207790   10.57746103356764
H         2.49253281008523    9.07633893962415    9.85377417623096
C         0.53649847738176    7.54883421093703    9.00650611235181
C         0.03708221281467    8.00522709621178    7.79495351087532
H         0.51778692505834    7.69353623641263    6.87813541189409
C        -1.05043460391355    8.86108828729119    7.75986305137516
H        -1.42931587365651    9.20983270576326    6.81008801649427
C        -1.64558782577385    9.27035808215002    8.94031643453960
H        -2.49331312019685    9.93942722898833    8.91696465442369
C        -1.15120770313334    8.82113377736176   10.15588560676014
H        -1.61479737688466    9.13963800315075   11.07834656789433
C        -0.06794687750049    7.96383396613815   10.19184892417132
H         0.31698089769515    7.61141232329074   11.13922834968072

