41
CSD_code = OLAJIU | q = 1 | S = 0 | Stoichiometry = C14H24N2Rh(1+) | MND = 6
Rh        7.62968407714343   10.35135790183947   14.62241480650302
C        10.13114177686239   12.36850105200730   14.49124015725525
H        10.23596453971807   13.44535558137166   14.39391745489114
H         9.30506284929603   12.04358524874051   13.84310005098432
H        11.05768500294267   11.91598421851672   14.14928345680002
N         9.21018071569402   10.68862292834914   16.10575249056494
N         8.93648275273125    8.78721300301662   14.00011864641959
H         8.56667844854909    7.93238558990366   14.42392987418162
H         8.99222006712485    8.61457028367585   12.99584153730153
C         9.82838114760716   12.01320818514059   15.94386236634705
H         9.12027907564659   12.74217900306137   16.34664311545501
H        10.74608693963768   12.07425396542206   16.54343971826416
C         8.67593727109250   10.53286807899209   17.46937080184075
H         7.80868618032032   11.17283885066669   17.62647325374791
H         9.44448959867091   10.79233632899124   18.20862542534884
C         8.37487809736136    9.04527845362515   17.53066620506296
H         7.51290208197146    8.82028293536876   16.88703112205708
H         8.16672823575376    8.69074233353701   18.53604497327160
C         9.66380273452664    8.46462911863030   16.94639415146304
H         9.50280988255932    7.50890503756550   16.45096871561028
H        10.39186075804797    8.30024954264728   17.73932709196344
C        10.17471777749016    9.55757401400194   15.97738493484424
H        11.17013139708962    9.89672846593056   16.29197964765522
C        10.28060196518996    9.05417734549996   14.53553943014937
H        10.75399851644316    9.80780234376500   13.90462261123536
H        10.91067503724854    8.15575817746634   14.51862471257229
C         6.46657767919203   10.63535914564595   12.88333178313658
H         6.95718317513586   10.46363446180755   11.93318657811257
C         5.87834861760004   11.98616496867902   13.28565251058320
H         6.01730553096783   12.80932203808382   12.59255730638134
C         4.43916675787287   11.58050372919391   13.64010493245582
H         3.87290868767635   11.22200335593496   12.78211649015532
H         3.88550001432416   12.36950581837985   14.14618494222519
C         4.87983319021995   10.45228656897583   14.58552633270720
H         4.10708106943815    9.87423985389208   15.08149174241304
C         5.86861497306027   11.19681672033957   15.48151030175017
H         5.78423348711989   11.20547023180023   16.56009997605925
C         6.48632826901245   12.14573058438443   14.68071027826452
H         6.97891541925106   13.05144010564873   15.00843319524152
C         5.85180425004847    9.68550891750335   13.69119808734429
H         5.75983195236154    8.62502551199766   13.49249879137911

