111
CSD_code = OLAMOD | q = 0 | S = 0 | Stoichiometry = C47H54CuN2O2P3S2 | MND = 4
Cu        5.34455654185551    3.29367888711786    3.97472990587427
S         4.88020348138042    2.40026229806933    1.93304748368599
S         5.47264363347654    2.03375954108049    5.95555286546608
P         7.68163891695940    3.60359619429119    3.93740162162564
P         3.91017779716272    1.25992778291128    3.21602629526755
P         3.91277735260433    5.11745889964325    4.07673383130794
O         2.93945590309276    0.29919470361703    2.38051929146371
O         2.81648281385362    2.10350777510071    4.03187256836659
N         4.69802499572652    0.19842689359093    4.15940348544371
N         5.86081102413442   -0.57110625281569    5.94059415714240
C         4.31571612295472    6.15408815535438    5.52065267632088
C         5.32268125946742    0.46923703016784    5.28092214633730
C         8.70002078398941    2.13321614286137    4.28958532283894
C         4.59235166841458    5.48506596205463    6.70933646224124
C         8.26064305924925    0.94238522257826    3.71891849466241
C         4.88466644516835    6.19777239153053    7.85694596892141
C         5.80523432334245   -1.89328785741446    5.35355830476066
C         9.00111577968096   -0.21521435101338    3.86743661130317
C         4.46871919174996   -2.58544038827868    5.61127225186329
C        10.18633128148312   -0.18626983069391    4.58403324587438
C         4.91676789983717    7.58185009768281    7.82111083818257
C         4.66332177975830    8.25061497741723    6.63464791721536
C         6.38243917802501   -0.45538844389526    7.28308944785350
C        10.62865897735429    0.99910492712392    5.15027361048314
C         4.36285179705957    7.54329424007275    5.48513309723691
C         9.89295411269814    2.16091274485690    5.00328480341443
C         7.89689224393567   -0.27395485271656    7.30413661143086
C         3.34292810641135   -0.34551089248065    1.17678795753737
C         4.32410745547344    6.23617907221485    2.69575475148470
C         7.96386109192256    4.73602334198890    5.31664795629432
C         2.09079857166487   -0.96554085428684    0.57201935281106
C         3.45573733917142    7.19454940759188    2.18156268055121
C         7.92058861986825    6.11124385012343    5.09008825045400
C         8.00329054011290    6.99250221811480    6.15018812980025
C         3.87075501467980    8.01242194327123    1.14581781878480
C         4.42199439229230   -1.38095439582978    1.45198687209114
C         8.11326448843034    6.51372939640121    7.44556756647111
C         5.14544135930094    7.88463779864312    0.61709489085398
C         1.93455614669663    1.41415331956095    4.93036697207665
C         8.11880503379571    5.14855950178579    7.67915204239797
C         6.01218818207068    6.92995210068020    1.12348854593177
C         0.55722579598520    1.30856039536899    4.29378577337753
C         8.03328514243763    4.26074218666654    6.62365404391554
C         5.59808444226465    6.11010963213338    2.15549080904561
C         1.90246715418383    2.18100917895561    6.24380362094528
C         8.71796867455186    4.27762605318203    2.58931573255565
C         2.09654650667786    5.17377495681633    4.02659318866319
C         1.30834991023896    5.59702621937173    5.09045448600827
C         8.29484723938801    4.00615152042681    1.29143582181797
C        -0.07154947067268    5.55449841452993    4.98271534765101
C         9.04132713149397    4.44768600198306    0.21401500766190
C        10.21039592796989    5.15915489993880    0.42804294698538
C        -0.66809773228141    5.08342542739074    3.82493736690277
C         0.11722071060211    4.64405481720514    2.76847658252132
C        10.63503285571884    5.42514558535499    1.72056582054502
C         1.49385850277765    4.68167949436974    2.86962239114001
C         9.89572899576561    4.98426834360722    2.80249238850401
H         7.33263585657671    0.93929315794632    3.16004375251144
H         4.58806480124832    4.40370440886902    6.72026267242297
H         8.65717399360037   -1.13924272095794    3.42506722866287
H         5.09355778426936    5.67228620512400    8.77689120388906
H        10.76870840409751   -1.08870037482152    4.70235455567686
H         5.14593703634939    8.14135272165836    8.71642047893387
H        11.55399667845737    1.01769035090725    5.70803514903801
H         4.69678802401078    9.33051758412137    6.60569709286696
H        10.23876354815152    3.08502618114685    5.44475947349966
H         4.16472246068752    8.06842533746741    4.56144315191816
H         3.74677822513921    0.42106031443928    0.49974064973469
H         2.45786303563647    7.29750955832796    2.58560421732962
H         7.82713026895799    6.48597233987788    4.07955520581106
H         7.97710516489096    8.05688534728464    5.96681474366890
H         3.19442142608068    8.75576058798435    0.74823104122648
H         5.45929039591138    8.52634977186303   -0.19316539562405
H         8.18369614012889    7.20529848601203    8.27224347744498
H         2.33780945927503    0.40644426095259    5.10057190510556
H         7.00494034321008    6.81660835847744    0.71159691269099
H         8.18490500641911    4.77320082671844    8.68998751166385
H         8.00408515825759    3.19688356002487    6.80769359914225
H         6.25332905038618    5.34168786452637    2.54942957629723
H         1.77456285322084    5.96299545045358    5.99523826656012
H         7.37283441667267    3.45944904718025    1.13793794241917
H        -0.68382913451154    5.88954306811458    5.80790850082257
H         8.70863614506176    4.23992243982699   -0.79246833380423
H        -1.74521524780088    5.05176239975619    3.74694815066876
H        10.79319397204935    5.50802938608378   -0.41219488874481
H        -0.34905423836549    4.26727774752482    1.86928839408817
H        11.54930022997570    5.97731413946018    1.88508119735265
H         2.11850148502800    4.33011797846618    2.05867800764148
H        10.22694078444689    5.19379879580539    3.80971424606239
H         6.62546598281512   -2.47983605219623    5.77464133171039
H         5.95732964792194   -1.79348129475676    4.27662716690086
H         4.47724488006227   -3.58504224491998    5.18419912223530
H         3.66887075592378   -2.01265462844396    5.15005916022557
H         4.27336435483761   -2.66169015861586    6.67877111784818
H         6.10338369384858   -1.35858381466191    7.83400820818637
H         5.91013793027982    0.40712674562237    7.75816858854868
H         8.24687871034446   -0.20709791969467    8.33077827883955
H         8.39721699663150   -1.10698064759520    6.81547995142032
H         8.16371443989140    0.63970939718571    6.78128169280558
H         2.33154982544485   -1.43181309846077   -0.37917518611539
H         1.33611138062979   -0.19981048516101    0.41051897456260
H         1.68746656115459   -1.71662114599715    1.24752741228961
H         5.29176635647553   -0.88290763573383    1.87486624261636
H         4.05911272862818   -2.11583070635964    2.16704326396811
H         4.70720174733748   -1.87833209637123    0.52849944636827
H         0.16205547036933    2.30427907097329    4.10637692329784
H        -0.11530997993286    0.77431558368433    4.96042990144287
H         0.62597111602986    0.77315933703304    3.35042200554027
H         2.91055565451948    2.27669524467296    6.64156643815896
H         1.49548562876332    3.17613604165313    6.08085070189700
H         1.28530609691260    1.65158410205445    6.96500513767197

