113
CSD_code = OLAMIY | q = 0 | S = 0 | Stoichiometry = C45H62N2O3Zr | MND = 7
Zr        3.75963345617944   -1.37409121358699   15.52689471764362
O         2.40533033530446   -3.13585456829918   15.03378764270612
O         4.25015074346508   -2.58134396922817   17.12423467454547
O         3.04141489957021   -0.67676935272825   13.71483800779161
N         5.15154573993743   -0.61062056781114   17.06251264157226
N         4.33067528818923    0.64872272348013   14.84742431670577
C         5.06149264490305   -1.74503740320135   17.68459874017669
C         6.25468160113540    1.43802760067738   16.19802185452689
C         5.04211795342033    1.81240354434566   15.31425540503601
H         4.35570543282630    2.41827573253529   15.92213299977504
H         5.41944032027574    2.43682596016701   14.49276575495893
C         5.96683180221370   -3.22208062780554   21.69375498229787
H         4.91895498736192   -3.14593647837881   21.99228124718086
H         6.53075190383456   -3.61101168337998   22.54508549972510
C         1.73362826166115   -0.74033557376944   16.50326679069887
H         1.02591432819165   -0.44740733944574   15.71657973854462
H         1.35415949819058   -1.58283205989861   17.09588211670114
C         6.10225245409486   -4.16609547781930   20.50098763832950
H         5.70911202340073   -5.15349084347204   20.76902084642079
C         5.84963210074989    0.59538738029960   17.43020363617401
H         6.76717817786135    0.39798970372963   18.00167875832905
H         5.17967014593179    1.20149389038860   18.05668395974334
C         3.40242917461493    1.43849635626730   12.60337431714384
C         6.87769188670823    2.74155644194301   16.71145029633320
H         7.74892000446704    2.53187324437431   17.32799160713914
H         6.16086031846719    3.29972641205883   17.30938846109280
H         7.19427180885269    3.36796176497341   15.88036250861418
C         5.52994839768961   -2.32465575490201   14.35363257188410
H         5.77253579169010   -1.64436270350271   13.52630235291169
H         6.37544241536724   -2.45624017694042   15.04175483455777
C         5.83542080726034   -2.23021164572948   18.91458171182283
C         2.37550073310485    0.82367701729931   11.64060941231520
H         1.42771329204368    0.68550184957320   12.16534383138525
H         2.72029623223343   -0.16366093295273   11.32865857625293
C         2.17298258635581   -4.24210509897880   15.91547779209508
H         1.70005231053943   -3.87743403579658   16.83966082721449
H         3.14098311802237   -4.68661877393499   16.15721907599087
C         3.60984010423690    0.48137621419057   13.78179479364989
C         4.52842968608695    2.51176257699114   10.63516651015041
H         5.48553599590209    2.63176849441849   10.11415038623716
C         5.69134973618785   -1.29628504784692   20.12239427438541
H         6.03768168446977   -0.29192489592791   19.88405249331232
H         4.63749626178286   -1.22473561486371   20.39665762415405
C         4.72982110967194    1.59915781415572   11.84480627147339
H         5.49710483202146    2.02032261960491   12.49563802366863
H         5.07664142319545    0.61519948352308   11.51947566978471
C         2.87897120519205    2.81042387595429   13.04716558837537
H         1.92296049015833    2.68206036886076   13.56026621910863
H         3.56815365514322    3.28468171822393   13.74442225155308
C         5.00370054935830   -3.58357879291158   13.88965496220316
C         7.31814997441499   -2.37638540548570   18.53411865719406
H         7.40389807032310   -3.06077028653044   17.68615382296029
H         7.73201218457379   -1.41555045557308   18.22532424095633
C         2.69274751966357    3.71221841108606   11.82572830105287
H         2.33463829111326    4.69327855711984   12.15876633019616
C         5.30914032401706   -3.61574094855703   19.31792061031050
H         4.25094501790755   -3.53767513769002   19.57575907942782
H         5.38584555830653   -4.29291199334771   18.46533656259658
C         1.37795253835211   -3.11322792704050   14.02684147181004
H         1.84828531289211   -3.35183375866048   13.06536411779557
H         0.95496082521905   -2.10472336515686   13.97824007314289
C         7.57494033295952   -4.29244057645812   20.11578681017293
H         7.68299203707250   -4.98452297457488   19.27770418921416
H         8.14872776180595   -4.69079736774986   20.95600297025227
C         2.17783583060963    1.72420130405904   10.42354593781074
H         1.44299191546850    1.26513255136051    9.75236250470811
C         5.15915229495315   -4.77295673260449   14.63269431448242
H         5.69245056517737   -4.72926377733312   15.57653099128384
C         7.97002746038593   -1.95885898719786   20.90873835707930
H         8.55196119999637   -2.32986319439303   21.75573187137656
H         8.36109494449375   -0.97443488265798   20.64055787270922
C         2.14555084253453    0.36917110687870   17.32447205607917
C         4.02861261619732    3.87844183853074   11.10231862723622
H         4.76101623877801    4.33501152721648   11.77247119482530
H         3.90445710489684    4.54077224604450   10.24244514662781
C         1.67118035411010    3.09230015422530   10.87528653539260
H         0.70893839525763    2.98548762423734   11.38101440772495
H         1.52447043193005    3.74218630795672   10.00932531947204
C         8.10921709512889   -2.91617022929411   19.72564233362135
H         9.16598592783475   -2.99935837522906   19.44560600741306
C         7.28092959996025    0.67207215916949   15.36277759921362
H         7.60878023634171    1.27211040575831   14.51564828077979
H         6.82787147599796   -0.24558736077719   14.99472747887475
H         8.15470254477231    0.42369906223256   15.96264962716707
C         6.49741434947607   -1.84547402358651   21.30096506764476
H         6.39900502749754   -1.15921781998267   22.15012336669466
C         2.59518903861094    0.18101261677313   18.64970208900474
H         2.61184757724946   -0.82700924960703   19.05216335275340
C         3.99361496393243   -6.05506878917798   12.96516172511673
H         3.61687535153840   -7.00163583863487   12.60522491929114
C         2.94880783824256    2.54238312124811   18.94440359410847
H         3.25357916278684    3.37235807022441   19.56496320345033
C         4.33080362730253   -3.69354073430180   12.65391164485472
H         4.20939123034078   -2.80020412267804   12.05021963313683
C         0.35981374211882   -4.18138981219579   14.41846644938624
H        -0.39370237113374   -3.76861122101113   15.09119161803294
H        -0.13772756344304   -4.61108037691527   13.55248575513567
C         3.50563223383564    1.88997881719671    9.68704466871749
H         3.37074784623860    2.53046694789082    8.81221177433337
H         3.86313605212100    0.91819260394808    9.33967079183599
C         2.99385067413589    1.24222354914776   19.43291560682356
H         3.33097631272682    1.06690480710177   20.44656638828659
C         2.08857174870007    1.70103265316017   16.86260720891356
H         1.70996280512109    1.88833555538856   15.86331076526559
C         1.24124219062739   -5.18079581278560   15.16001661832578
H         1.81511123579868   -5.77757531262781   14.45014332905999
H         0.68376476862127   -5.83937415325679   15.82162932935666
C         2.48599184779323    2.75829155957959   17.65379316111310
H         2.42132196406885    3.76957197677028   17.27145845302215
C         3.83726240823415   -4.90099889172710   12.20809689119189
H         3.33136298848817   -4.95572764298573   11.25214311386986
C         4.66194725325742   -5.97654192522928   14.17983181357917
H         4.80303316278719   -6.87236822626728   14.77113875229772

