68
CSD_code = OLANIZ | q = 0 | S = 0 | Stoichiometry = C31H32ClN2PPd | MND = 4
Pd        2.85287612188702    8.20709661161096   15.67055588314489
C         3.79994024870354    6.72592063953712   16.64833091171957
C         3.40463357937333    5.37465253637537   16.70585694106076
H         2.61048767075300    5.01555323154103   16.05936899237495
C         3.99879057644332    4.49685428721306   17.56877671722844
H         3.68350120951207    3.46269659846904   17.59832443310539
C         5.02910314214122    4.91519586896591   18.43292778700956
C         5.67120882452265    4.01190344873804   19.30455947601596
H         5.36069224270293    2.97644540147861   19.29150555586370
C         6.66484163414501    4.43044744302828   20.14247356306076
H         7.15517121116628    3.73354116340718   20.80632902209341
C         7.05659350012375    5.77689587355827   20.14044764041556
H         7.84750228139743    6.09979207881976   20.80227566759705
C         6.45161372528862    6.67777651661180   19.30942726801075
H         6.78305558764126    7.70513065832739   19.32224842159448
C         5.41878281416339    6.28194675123184   18.42974956815016
C         4.75618787488894    7.17014468990523   17.54368077581574
C         5.08510027023743    8.64578078994431   17.49358757192007
H         5.40766903861897    9.03245794421406   18.47353573168548
C         6.21396632860926    8.83567535215278   16.47958282250305
H         5.84951312071089    8.59480507564438   15.47884256537314
H         7.01741051200357    8.14084977428656   16.71347158509544
H         6.62319700222357    9.84311991856330   16.49151099993284
C         4.09370896211066   10.74822113394626   16.73555363709187
H         3.14223462697576   11.23606163782912   16.51670667506707
H         4.71649780156543   10.80697728687476   15.84318322931298
H         4.58901163321805   11.28646768879246   17.55527261323403
C         2.90118079701805    9.34571604906645   18.22951785072462
H         3.26858089812784    9.97959992297448   19.04958360770834
H         2.77579019836876    8.32790631507523   18.61177776754399
H         1.93183517542853    9.73338772804937   17.89742604312557
C         0.96783894323811    7.76706627589671   12.66769582217936
H         0.77469450199339    6.94807302841157   11.96699534012439
H         0.02982123943539    8.27373681954011   12.90676295056261
C         1.93728620370644    8.78728902775584   12.04986729630347
H         1.64791005932047    8.97252124898361   11.01233490854539
H         1.85857734454995    9.71764996493923   12.61505546944362
C         3.33210273355012    8.27760175848953   12.11791510416209
H         3.59988716712890    7.46621015782509   11.44988537059327
C         4.22604743491713    8.74505731475629   12.99866182556616
H         3.98965093265288    9.58860532424046   13.65509249338497
C         5.54414380410787    8.24843581807524   13.03370174014892
C         0.07942274055328    6.59973768163906   15.11008312283403
C         0.09156665839247    6.74689485133964   16.49589548396555
H         1.00870300723426    7.08293282346945   16.98955549798328
C        -1.04631887670445    6.49151448095332   17.23890139123743
H        -1.02929956819330    6.61178180369244   18.31227493065209
C        -2.21090222434529    6.09162019310681   16.60437907602782
H        -3.10221176479856    5.89491321839177   17.18151489823118
C        -2.23672206597249    5.96176634472462   15.22578532466586
H        -3.14957423565610    5.66789447070797   14.72813476965822
C        -1.10116929404250    6.21894298741582   14.47828223603802
H        -1.14781228299961    6.14056454307674   13.40140003583024
C         2.28758149689793    5.44695237500704   13.57514844202342
C         1.47797434313059    4.43711986788072   13.07031172059240
H         0.40248402023283    4.53194727281393   13.10762165178514
C         2.04753780601459    3.29371153584472   12.53781735089995
H         1.41244746754489    2.50932138535303   12.15211428041930
C         3.42494219012554    3.15239555076409   12.50090425427426
H         3.86401421332897    2.25989958433863   12.08035751432536
C         4.23667970219696    4.15188357921558   13.01287441098538
H         5.31072203067572    4.04477895153104   12.99579335105565
C         3.66967694184528    5.29118906744120   13.55177166407449
H         4.29636628108671    6.06538733076933   13.98124547734768
Cl        1.38556189466763    9.97795331978340   15.05112431942292
N         3.84389771522068    9.35621965542823   17.10456663481989
N         6.62356846215850    7.85661455307866   13.03558249406286
P         1.62192436686779    7.01869541708285   14.23740002111107

