65
CSD_code = OLANUL | q = 0 | S = 0 | Stoichiometry = C29H30Cl2OP2Pd | MND = 4
Pd        8.52796979639665    0.66769408991165    1.45113430527963
C         8.15407950573667    0.60308237001482   -2.06852385809942
C         9.08603414207939    1.36104768376462   -2.77338764975696
H         9.38865285180228    2.33369866207121   -2.41280111513729
C         9.62631953845091    0.87320403369426   -3.94952084120693
H        10.34497483383697    1.46775664365814   -4.49450468756224
C         9.25607002423431   -0.37476892555933   -4.42233121357932
H         9.68499749888462   -0.75461937037779   -5.33799184841731
C         8.34554949550116   -1.14057413691152   -3.71223200639058
H         8.06756464528745   -2.12098633819734   -4.06967807515161
C         7.79828980090490   -0.65955460034334   -2.53776137000721
H         7.11161954579003   -1.26707602745471   -1.96686770183508
C         5.82719633707556    0.48742039779966   -0.35805071462115
C         4.95693289668880    0.38559919509614   -1.44015532607974
H         5.27853220660385    0.69030741049565   -2.42528373156426
C         3.68736278497755   -0.13306115432417   -1.25961175789182
H         3.01790287603087   -0.21531186448600   -2.10349093347710
C         3.27547278666688   -0.55510589440697   -0.00569563299656
H         2.28432382039067   -0.96270123877516    0.12727033613538
C         4.14146601830652   -0.47202252869517    1.07247796721053
H         3.82879029925082   -0.81910150929592    2.04607014058582
C         5.41252963262214    0.04382256633595    0.89676303441684
H         6.11785995592763    0.07486827377401    1.73779680635556
C         7.23924594936954    3.00449430068237   -0.72447193072572
H         8.23066019958464    3.41197403724867   -0.95900721697108
C         6.33782549528928    3.31494094921527   -1.92157498865246
H         6.57525474894168    2.62551071509702   -2.73431323056866
H         5.28703348681915    3.19804658065820   -1.65382509905360
C         6.57443127851599    4.72961478104144   -2.45021578841519
H         5.89292219899063    4.91776421723372   -3.29123028597651
H         6.36625897369532    5.47483459180255   -1.66841610927429
C         6.74313960230450    3.64607943708906    0.57991524627874
H         6.13316808909622    4.51948923306361    0.33719034382743
H         6.09565510716399    2.93969862538386    1.11888007609474
C         7.89008373874491    4.07861619643416    1.49790067912965
H         7.55249156697111    4.85920976661307    2.18392369812745
H         8.71908919905665    4.48084731876304    0.90845917766036
C        10.24224581455832    3.06806231365338    2.78509137110042
C        11.11007926081565    2.63170363064164    1.78151985055823
H        10.70899117779095    2.06678050985498    0.92803518485568
C        12.46557882533307    2.87218223791698    1.88415683731029
H        13.13764894191322    2.52724504616534    1.11222681009408
C        12.96494879819831    3.53872353094642    2.99378846671211
H        14.02640189626812    3.71757854238310    3.08112868883720
C        12.10930988952807    3.95145007770472    3.99999325528358
H        12.50391545462907    4.44874070317084    4.87403245919419
C        10.74724773677152    3.71754668494791    3.90179614239366
H        10.08890002711769    4.01274672171288    4.70505009472600
C         7.55791530594152    2.77323386229956    4.02961993527333
C         6.87254519482210    1.64468732163683    4.46931160892046
H         6.96604923301334    0.71759143209237    3.90898048649589
C         6.11354507400258    1.69665453144928    5.62396500025529
H         5.58815674087961    0.81694550058490    5.96437207175338
C         6.03447929072439    2.87565587665816    6.34677813925219
H         5.44929910433381    2.91652488757111    7.25354796373350
C         6.70558811672122    4.00571349102677    5.90745904136672
H         6.64075541671357    4.92564275492016    6.47051338362513
C         7.45934498360443    3.96139026606987    4.74877707322122
H         7.96898758648273    4.85208373597463    4.40669661582082
Cl        8.66781174456671   -1.38197182162604    0.47852678275384
Cl        9.55043258556559    0.03459722676324    3.39762567084829
O         7.91901697142727    4.82904994572468   -2.86985819470037
H         8.05924861356372    5.68369606456482   -3.28853484840141
P         7.50825497238628    1.17404215102601   -0.47461734084317
P         8.50495031431449    2.63056428606172    2.48977875187122

