103
CSD_code = OLASUR | q = 0 | S = 0 | Stoichiometry = C44H38B2F2FeN10O6 | MND = 6
Fe       -4.35461554137238    4.02734011653328   10.53509380812942
F        -3.24294187729818    1.99980882605284    6.90944599327793
F        -5.51497753853660    6.11975451842202   14.10652275969142
O        -6.12375802608291    4.38731455129340   12.69197036749964
O        -3.80502505168517    1.65877147042877    9.13579205902968
O        -3.78997323314406    4.91262434163711   13.13325857210778
O        -5.16777894135389    6.46234230005476   11.84217322732082
O        -2.54495242771308    3.61300594244170    8.41941456058006
O        -4.88446782619620    3.38119393519765    7.78068602082234
N        -5.03030006349186    5.82024822966528   10.63734613092380
N        -3.25813977787843    4.45905416931503   11.97687412072994
N        -5.17707264811426    4.22906347731161    8.81747598785134
N        -4.39894626699926    2.18937365083150   10.22979362102136
C        -1.62829105611139    4.27487888958412   10.41176664322252
N        -5.68072884296570    3.52652599390106   11.74965733861070
N        -2.69585016055623    4.08320229413806    9.67942285452222
N        -5.95010495841294    5.73833516251389    7.20517402716575
H        -5.71318163457546    4.96772390331036    6.58375382652081
N        -6.56058154343520    7.35961877290513    9.76690240362767
H        -6.51588739743490    7.73611924516396   10.71077037411893
C        -6.76538182498374    1.66905177124016   12.95094630638782
C        -5.63710125468466    0.08838191806631   10.55548315087135
C        -6.36802847344152    0.47143753559050   13.54739604450577
H        -5.45880231077681   -0.01097220726389   13.22222293907801
C        -1.98252283117218    4.64648688466988   11.75350087763116
C        -8.15908574441144    8.92360092817349    8.74944142728214
H        -8.05625826226421    9.54605714003160    9.64051181386250
H        -7.46462358007737    9.27437660138951    7.98593882128508
N        -6.73553945631567    9.80281602217264    5.74120747452953
C        -7.12283816446525   -0.08481797226312   14.56126604630645
H        -6.80498087071117   -1.00978562886867   15.01928372345895
C        -4.65322237201065   -0.83574157066038   10.20893459458155
H        -3.62095971369514   -0.52667504849323   10.17526597158765
C        -6.28542264470427    8.78271560696188    5.01966033849476
C        -0.07335239885834    6.13762743199254   12.26334554001562
H        -0.03478341701047    6.40703628684567   11.21887070493535
C        -5.63750311288720    5.40372989807101    8.49101033795837
C        -8.28112979054022    0.54157347816964   14.99355221794976
H        -8.86966280625189    0.10335821953965   15.78587644623244
C        -5.28959252863105    1.47641849374815   10.87010643229174
C        -5.95077149448042    2.25306204138976   11.88199827458660
C         1.97667761793756    3.26645328795858   10.40519413538665
H         2.68207320833056    2.79469823194390   11.07316427519952
C        -5.78568191441261    6.24905393820807    9.66279558582480
C        -1.10150611087967    4.91780378796393   14.06433939099936
H        -1.85239125827010    4.22906790793052   14.41639737351491
C        -1.03969845289759    5.23428666338978   12.70853282671254
C        -7.92497868793727    2.29931358581816   13.39809824340861
H        -8.23240545174675    3.22944397062491   12.94825803149097
C        -6.60883935835917    7.41072415256536    5.53760879372443
H        -6.52773660316882    6.67496201882363    4.73685274492955
H        -7.62790671984785    7.40387998430366    5.92532507039425
C        -0.24781922000791    4.07538440971461    9.96288147557125
C        -6.45668726465636   11.03475459045447    5.35275945874083
H        -6.85610112172273   11.82069500570097    5.98105646760190
C        -6.32559857864857   -2.53825522890943    9.95075736269785
H        -6.59312191079727   -3.55811979245115    9.71730695272989
C        -7.86300192337768    7.47126461782739    9.13766595932297
H        -8.64925265481454    7.13521422759772    9.82433504584919
H        -7.88359736084766    6.83012202005995    8.25623644666512
C         0.15909593406738    4.45864927995415    8.68650044658745
H        -0.55085624535226    4.91729602250178    8.01744948544904
C        -5.63897433094422    7.04956272111205    6.66928068783487
H        -4.61049087034379    7.07279123574223    6.28339900476415
H        -5.71691559670603    7.78612593455380    7.46883137410308
C        -0.20403170641675    5.48301394142465   14.95124708732201
H        -0.25817482502758    5.22964497124001   15.99941629060369
C        -7.31015770201564   -1.62102439086132   10.28277582398413
H        -8.34658557699126   -1.92393875611075   10.30384930588528
C        -8.67663611252619    1.73397815733424   14.41145319403477
H        -9.57487216204967    2.22869864721237   14.74958841583077
B        -5.15322762310962    5.48656374402028   12.96952381775296
C        -6.97250639470060   -0.31630296292071   10.58402398092054
H        -7.74260983596799    0.39960565938366   10.82758235273608
C         0.67495746656463    3.47103686151892   10.81816239952033
H         0.36184345004130    3.15044498309111   11.80008477811384
C         0.81713932000235    6.69998797871973   13.15651664357946
H         1.55910826762475    7.40065012673051   12.80294485586902
C         2.37721898233511    3.65982372221555    9.13803548916110
H         3.39608653967889    3.49902007401953    8.81830263465209
C       -11.78756535888517    8.77307511908297    8.68368620940587
H       -12.52877777025745    8.48600644706752    9.41857852217898
C         0.75825487617322    6.37130432912737   14.50164743917758
H         1.45724784290289    6.81173210334854   15.19707754580191
N       -10.53246759047361    8.69678763266643    9.08540277004368
B        -3.61157655467177    2.64238993823037    8.04015473960826
C        -9.56795459692228    9.03638794927228    8.23858611686019
C        -5.52477076071187    8.97249026794003    3.87090534899595
H        -5.17180716550481    8.12383184593338    3.30525402870932
C        -4.99976726158832   -2.14085237759590    9.91217724623240
H        -4.23019577793269   -2.85041008587462    9.64737577997750
C         1.46492944072402    4.25251960298935    8.28166323416138
H         1.77115946230330    4.55451105934318    7.29113021048104
C        -5.71049738046766   11.32550110247689    4.22213674494868
H        -5.50947290189239   12.34720634527352    3.94190945038203
C       -11.15481238622687    9.54106197065885    6.52631714414943
H       -11.39596987753303    9.87051407386986    5.52549836608747
C       -12.15918463836084    9.19038082389785    7.41487781890965
H       -13.19927312268433    9.23897123548999    7.13266950465275
C        -9.83592391213382    9.46172164704058    6.94133209614335
H        -9.02151411380941    9.72483400990837    6.28378390851470
C        -5.23536712831109   10.26504743899465    3.46653282408486
H        -4.64959267004253   10.44227456924387    2.57625506043092

