88
CSD_code = OLATEC | q = 0 | S = 0 | Stoichiometry = C35H34B2F2FeN8O6 | MND = 6
Fe        5.91004852371802   10.22590611206068    2.81163248416206
F         2.97919667469986   13.22541517211322    1.89438598854797
F         8.88398297476172    7.20715128315984    3.67166801535250
O         4.66617813530754   11.94090265394924    0.93721256303151
O         7.17137118924831    7.70135815884026    2.19356775416975
O         3.22507251122927   11.06382523049966    2.68938518296070
O         7.02713321109075    8.29729256259655    4.54750691553471
O         4.83759945229981   12.80305775233489    3.21213333884625
O         8.61386180859736    9.44076126138406    3.10555400916378
N         5.43505365740963   10.85729714518987    1.10445333076427
N         6.39730262645841    8.73473566936571    1.71905250349456
N         4.08845990188958   10.16782266206027    3.22004552614161
N         5.92938213877499    9.02958792191760    4.25694424398187
N         5.92154199251938   12.01183859750392    3.37819872778020
N         7.75281969640293   10.48122520469706    3.10029121067348
N         6.90755355459784    8.01288267679856   -0.43103466669452
H         7.60886099069375    7.38102739328048   -0.00628375569586
N         9.18227938780902    6.59499045801276   -0.32526235283797
C         5.67859795564838   10.10971156509411    0.07508698793959
H         5.35160116977899   10.37579259333374   -0.91955343304070
C         9.62349475377813   12.63026744776657    5.31465155183649
H         8.74391908790795   12.98495692628140    5.82991451705837
C         6.37769690541185    8.90724733973970    0.41595219598023
C         3.70191534105442    9.45862390105104    4.25060224109508
C         4.78241568229101    8.67632359960626    4.77888282768891
C         7.07289711098953   12.57684980004201    3.63868485523841
C         8.14485754243871   11.62235897589692    3.60685103745274
C         7.15351485242827    8.24112028039977   -1.83379947724397
H         7.74800646440344    9.15249808351266   -1.99114784022437
H         6.20004390531759    8.36597623323624   -2.35914254446206
C         7.90163341097838    7.03278424460683   -2.39760453074750
H         7.30054386129953    6.13930466341350   -2.22890681244406
H         8.02663503599638    7.15965551013760   -3.47380576777483
C         9.28434464276169    6.85967522020336   -1.75560923899602
H         9.82995598810632    6.05690396613270   -2.27673510938025
H         9.84763718587565    7.78540353457116   -1.89715063166628
C        10.27042288108301    7.15609626764090    0.45148981336178
H        11.23653248715691    6.68028296289569    0.23044357428554
H        10.04635024341137    7.02889490345942    1.50866323698498
H        10.34872450687246    8.22296858853206    0.24721798143931
C         8.98530982069263    5.19299450887994   -0.01731687597974
H         8.13543006585995    4.80819126090301   -0.57809826264825
H         8.77190818472653    5.10035456669195    1.04609799991909
H         9.86944455157078    4.58439454946275   -0.25834811542768
C         2.36205034818537    9.49866892450454    4.84342359055755
C         1.22388386801381    9.56429214579142    4.04206805429007
H         1.32852048224381    9.58237313685337    2.96932152190391
C        -0.03143101145600    9.60389251345882    4.62012649192452
H        -0.90755728443443    9.65236536452426    3.99095390762189
C        -0.16779721856749    9.58440871967521    5.99791117230441
H        -1.14964856441587    9.61684961218187    6.44628710496608
C         0.96055398850307    9.53056808189009    6.80085657711716
H         0.85956633000221    9.52525646645603    7.87608651713030
C         2.21806553353315    9.48767855011533    6.23161394825675
H         3.09557590366032    9.46033360225428    6.85956260751980
C         4.59934353484252    7.57494793404511    5.72865847335451
C         5.51187130595175    7.35615286007334    6.75870000384194
H         6.36239715567804    8.01009930896276    6.86462439387955
C         5.32570345452580    6.30745105058711    7.64034877570766
H         6.03673430263194    6.14721102082319    8.43698910531082
C         4.23629798947722    5.46396540967416    7.50320620283620
H         4.09461742987773    4.64482726453239    8.19250636034339
C         3.33136097744617    5.66932082131568    6.47369879605051
H         2.48586986099663    5.00764892471855    6.35693418505194
C         3.50765756150594    6.71663798242838    5.59093806153524
H         2.81008647891452    6.86558014705538    4.78097725842883
C         7.26910827282986   14.01235618637561    3.86026507802106
C         6.35678342291993   14.75136101054779    4.61098773971421
H         5.49702476389713   14.26073178698419    5.03801494770618
C         6.55487296767697   16.10529172577897    4.80827495585076
H         5.84369501072595   16.66888254955195    5.39328491611174
C         7.65624636824527   16.73822877610614    4.25728873558671
H         7.80716294479598   17.79626047584199    4.41165662144278
C         8.56123688743087   16.01128246952139    3.50012574809456
H         9.41610586621761   16.50294876434160    3.05994600998355
C         8.37290464965243   14.65770314870201    3.30107807784744
H         9.07158584349216   14.09730273846389    2.69860492044480
C         9.48414464981001   11.89378455353883    4.13735117443909
C        10.62449676201341   11.41357073000570    3.49681891198268
H        10.52339058608360   10.83470881818676    2.59296798307278
C        11.87775348871185   11.67965688193293    4.01669423145205
H        12.75598006050423   11.30586278951256    3.51171925671450
C        12.00950137315339   12.41903964848767    5.17985899413294
H        12.98966453228636   12.62455674504248    5.58371615753479
C        10.87869559167489   12.88864180441234    5.82913996197683
H        10.97598863502669   13.45670385866080    6.74238258595262
B         3.89949295321176   12.28574310532686    2.18606801029532
B         7.93730987718623    8.13194218147973    3.38069067208133

