58
CSD_code = OLAYIL | q = 0 | S = 0 | Stoichiometry = C27H23BrN3NiOPS | MND = 4
Ni       -0.57271781820112    2.03805184353131   16.31652639310324
Br       -2.97914344141903   -1.17598470830019   10.12970479334954
S         1.17080602740686    2.41165916971633   17.53195391905327
P        -1.89214765829918    3.33570981178792   17.44411010517520
O        -2.11549041919306    1.70430459081453   15.31404889363489
N         0.52891349647998    1.01660082090226   15.16758210162188
N         1.84451927408600    0.86532831113983   15.45860394236449
N         3.52427912846175    1.37192647134377   16.95494190371408
H         3.77676632708340    1.93878103306635   17.74876853655089
C        -2.25269821580698    1.08225446081984   14.19487248398535
C        -3.53001389807951    1.03979026116991   13.58774005960679
H        -4.33860007456877    1.54709987190880   14.09208771905531
C        -3.73983704249044    0.38266275208913   12.40481502244185
H        -4.72113312183016    0.36061659555902   11.95523861190680
C        -2.67255781431220   -0.26238695820108   11.77862255865458
C        -1.41524425893523   -0.24999237135748   12.32324098635836
H        -0.59821787385639   -0.75256509338117   11.82674932137502
C        -1.17619193206131    0.41899233168347   13.53364643971567
C         0.13804275746868    0.42262960016512   14.07624544986205
H         0.90556727393827   -0.12013684048452   13.52705265478486
C         2.25352692241787    1.46426672564522   16.53196189149497
C         4.57184872757969    0.74187256759101   16.19504192849235
H         4.10597570185233    0.10217225783845   15.44997142603813
H         5.19694405975119    0.14058980709528   16.85599074639890
H         5.19886734454870    1.48175743369317   15.68903629089034
C        -3.35378339790172    2.63150241531924   18.26422396127522
C        -3.70523190460743    1.31032098358303   18.01673752491972
H        -3.09528650032079    0.72141870240477   17.34533974889624
C        -4.82240258456931    0.76373441028425   18.62268151536215
H        -5.09430093838399   -0.26308551195531   18.42738038983096
C        -5.58974477720298    1.53263906097663   19.48169692936033
H        -6.46221550084139    1.10681202136322   19.95486239256510
C        -5.23479094411760    2.84724349209918   19.74145110233417
H        -5.82933600702932    3.44401757109934   20.41782255911513
C        -4.11835458083575    3.39805837140035   19.13987151090251
H        -3.83228906896061    4.41885054357776   19.35380787709539
C        -2.55324088613066    4.46822792891924   16.18185723245737
C        -1.65701992906509    4.83866760585869   15.18162912053498
H        -0.64460155952853    4.43517121247651   15.20951431168723
C        -2.05507586355323    5.68544392418902   14.16611133252990
H        -1.35949763122919    5.96845538731069   13.38997179941754
C        -3.35645241741838    6.16364332882171   14.14181052362653
H        -3.67388829603322    6.82152134877152   13.34650248172839
C        -4.25292163685873    5.78877208034855   15.12838457166606
H        -5.26893781360884    6.15446160705100   15.09988058170536
C        -3.85720483784601    4.94058890445743   16.14925978680031
H        -4.56336081129114    4.63883691496064   16.90902683520569
C        -1.27035981919998    4.46000735444371   18.73622076798773
C        -0.86726063114380    3.87922087667516   19.93594940183181
H        -0.95173486631716    2.80699422820761   20.05603845122319
C        -0.36049227367896    4.66446240947900   20.95224839224046
H        -0.05028817743045    4.21106216469803   21.88201126439362
C        -0.24397505895513    6.03457446839579   20.77453639307759
H         0.15529556706963    6.64965746381977   21.56735423672291
C        -0.63199499921145    6.61386971781794   19.57856988863962
H        -0.53573298777260    7.68067179031168   19.43831090583548
C        -1.14164653321819    5.83089478594227   18.55681898386158
H        -1.44043580492631    6.28458169083819   17.62226304545515

