33
CSD_code = OLEFES | q = 0 | S = 0 | Stoichiometry = C13H13F3N2OTi | MND = 6
Ti        2.85947930008144    1.82013607029371    8.01323037083506
F         4.59422306922188    1.82049891211510    7.81308076559815
F         2.71104953812100    0.09728163491992    8.39504127730084
O         2.18278933616653    1.82048819509136    6.39741800167359
N         2.61639033949863    1.82088902101228   10.27103752714678
N         0.80773623897511    1.82069695472744    8.48218908599437
C         3.64701485076439    1.82071229091866   11.09378535469921
H         4.62487333799267    1.82067473326581   10.62320516969568
C         3.49232075637680    1.82051400937106   12.47664061746704
H         4.35391907611104    1.82042601049182   13.12504924898962
C         2.20797974253673    1.82048024503960   12.99666418987711
H         2.04691738000159    1.82038499137396   14.06467756144018
C         1.12682089281894    1.82054590794897   12.12895790279008
H         0.11974617745251    1.82046868792419   12.51439969336688
C         1.36989779179377    1.82073056301072   10.75643691761161
C         0.31809458320337    1.82066745721048    9.71956423787160
C        -1.05741967572539    1.82054896689235    9.93098841509513
H        -1.47771503142879    1.82053250899276   10.92370416191552
C        -1.89083087255757    1.82051385984156    8.81858983996633
H        -2.96282864439168    1.82047356443867    8.95252744740872
C        -1.35185850471407    1.82052223110218    7.54379010366979
H        -1.99295914352934    1.82046887869914    6.67669518911216
C         0.03893663092032    1.82058822055370    7.41211493708442
C         0.83541840293264    1.82051136224846    6.10641200085040
C         0.48368650856915    0.54618769052543    5.31200885836687
H         1.05489360182028    0.54425721351932    4.38709813140054
H        -0.57772154258883    0.49640899576419    5.08378389424993
H         0.77825236018248   -0.32019664953274    5.90339087123015
C         0.48368174980769    3.09480155014598    5.31196721677159
H         1.05486923832992    3.09668509818148    4.38704829280173
H        -0.57773022466052    3.14458761497739    5.08376281190961
H         0.77827324474343    3.96120031580166    5.90331122418377
F         2.71039949117383    3.54281289313338    8.39632868162555

