52
CSD_code = OLEKUN | q = 0 | S = 0 | Stoichiometry = C28H21AuClP | MND = 2
Au        5.68186961849192    0.55561820653769    2.89233983429356
Cl        7.49378332563492    0.11695672374371    4.17244182741720
P         3.85809249159646    1.05228577375882    1.68931219531096
C         2.54286134472448    1.57352159795583    2.78596009905141
C         1.36553034876451    0.99916684682929    3.03539968089575
H         0.97431419347303    0.13909257617204    2.51844197222208
C         0.58862990527053    1.65506425405668    4.15035440762393
H        -0.37523489970566    1.18672234343737    4.34483794976439
C         1.52032210336163    1.63517121884322    5.34564881210853
C         1.24873191737482    1.09629544652117    6.58511793917532
H         0.28920636527449    0.64409248525571    6.78983812365790
C         2.23298153697391    1.13806291669707    7.56395498175267
H         2.03360968931700    0.71425524980581    8.53679292008511
C         3.46578870344511    1.70802816554969    7.30045381005759
H         4.22677127038396    1.72304760698673    8.06545679542470
C         3.73774498659379    2.25754047915656    6.05502137665662
H         4.70198587933563    2.69607435029383    5.84635498392470
C         2.75738095331509    2.22082668126187    5.08620101049184
C         2.87191292482670    2.75495874364856    3.67863402635594
H         3.84531428565188    3.20070250854997    3.45877876996803
C         1.71610040538688    3.70819917971468    3.51333702793921
C         1.79487715013356    5.03276530883918    3.13661790892433
H         2.75324635356376    5.48710199759163    2.93175805578320
C         0.62346154356614    5.76877777009991    3.02380018347667
H         0.67153982439076    6.80690342604421    2.73094055681380
C        -0.60269238047483    5.18276702086603    3.28490178993500
H        -1.50704509266664    5.76597650433619    3.19647421111216
C        -0.68213839019085    3.84817074501335    3.65919003081563
H        -1.63995493059910    3.39124400661065    3.86059369723689
C         0.48095220448238    3.11509016764182    3.76934175109766
C         4.01827906053019    2.46287831066601    0.56387491594587
C         2.93020826517009    3.27350044135475    0.25015818760434
H         1.95804394420995    3.05756589882473    0.67231801888626
C         3.10484713773287    4.35371543589251   -0.59458334762749
H         2.26339513523830    4.98684534554498   -0.83403538972011
C         4.35491517938250    4.62511263158779   -1.12965810681608
H         4.48587127313961    5.47190647526251   -1.78679177728763
C         5.43789943023838    3.81783466851715   -0.81969642905212
H         6.41120212477653    4.03311142092878   -1.23427529224957
C         5.27311156121889    2.73964802323123    0.03083365275519
H         6.11175690891515    2.10817069376239    0.29607606163422
C         3.11859363052492   -0.27885980030289    0.71029539958885
C         2.69230133621721   -0.12096530654996   -0.60279255816441
H         2.78821800701653    0.83788604375585   -1.09257040920142
C         2.14816747512567   -1.20048672789980   -1.27694585598292
H         1.81638776802436   -1.08120435103626   -2.29769687052636
C         2.03099526709531   -2.42952855241269   -0.64903370187712
H         1.60716719569657   -3.26759946172574   -1.18165293262695
C         2.46459025467822   -2.58989013891683    0.65855728848598
H         2.38007763135662   -3.55053583800356    1.14403827911032
C         3.01496986583775   -1.51938996768264    1.33628426234630
H         3.37315791617985   -1.62939554661907    2.35249987540071

