59
CSD_code = OLEQAZ | q = 0 | S = 0 | Stoichiometry = C25H27Cl3N2OTi | MND = 6
Ti        6.93148011701985    3.02965647438097    8.68339974927617
Cl        6.47820609830671    3.59477661212265    6.51976637046692
Cl        6.99779382177972    0.86775814387253    8.49545175165608
Cl        7.29106024277648    3.32303994086727   10.94199714726325
O         8.59027434962646    3.42196205113756    8.42144353431465
N         6.51144358251499    5.07809003566306    8.90117210945925
N         4.86669357470284    3.05317470199913    9.12356822587763
C         9.20796419729990    4.45946561929805    7.93486608425701
C        10.43852368292262    4.27850927889022    7.28044521389236
H        10.81967892752940    3.26877595043748    7.21579448916089
C        11.11282019489541    5.33936747337029    6.72395633387259
H        12.05016733710861    5.17385872008238    6.21466842332274
C        10.57812910457877    6.62014678211614    6.80471217842257
H        11.09077422653796    7.45194571778672    6.34729493663608
C         9.38691653073046    6.82583888900736    7.46490662844433
H         8.97290490593130    7.82234928058369    7.48837148796841
C         8.67741186581818    5.77396265429865    8.05838555857237
C         7.42616871685840    6.04382095329583    8.76538136094388
C         7.16801026510066    7.32007474904631    9.30418229868088
H         7.93432723566990    8.07686054699332    9.28213590699848
C         5.94959568419975    7.58963901070065    9.88472526847762
H         5.74657187171993    8.56415306281481   10.30264153346037
C         4.97978714724639    6.59528445725514    9.92819050536916
H         4.01196279335216    6.79311046864191   10.35708806644785
C         5.31128648419435    5.33673996736940    9.44186043361343
C         4.39274340262269    4.18558875389958    9.49018539408541
C         2.98467071693154    4.39653965112718    9.95203339197960
H         2.52154169146360    5.20702905744856    9.39234832345390
H         2.98069317540489    4.65902431049671   11.00935786658141
H         2.40530152865724    3.48598393042146    9.81453929227833
C         4.06270440128144    1.87566872877246    9.16219886766899
C         3.92562487416366    1.15360452364822   10.35883182464151
C         3.20214631397240   -0.03153524545927   10.33953665131505
H         3.11263751576650   -0.60523690488106   11.24823528055366
C         2.59817504463279   -0.48891438110910    9.18649711058032
H         2.04646375452225   -1.41673720803655    9.19177908280812
C         2.69770991346303    0.25572115068651    8.02927652993720
H         2.21017619544249   -0.08946066562370    7.13138477394368
C         3.41716303340429    1.44251129361759    7.99453110489059
C         4.55824003250369    1.59611638680277   11.65659316094538
H         5.00924818295972    2.58403049406658   11.53047312603682
C         3.52214707090846    1.69620888339689   12.78011711417357
H         2.68198373978955    2.32054348025181   12.48065523966026
H         3.98340731860668    2.13591641733132   13.66103058514190
H         3.13774651871293    0.71727579612046   13.05407930355678
C         5.67991950623812    0.62400140824839   12.03295960616338
H         5.28364059295824   -0.36517649090003   12.25041967406994
H         6.21077987110706    0.99333146993849   12.90645307253727
H         6.38846555433522    0.54115288502602   11.20992955343694
C         3.47802088684628    2.22301228567687    6.70336441994202
H         4.05061587327662    3.14269567372934    6.85931436018692
C         4.20652819205310    1.39609647070003    5.64093474538029
H         5.17336264171449    1.07483571737061    6.02529206429053
H         4.37568695774508    2.00041449516093    4.75382463027845
H         3.63049438978615    0.51609769010143    5.36482772353498
C         2.07719489325400    2.61980007233109    6.22927972462575
H         1.47724432095476    1.74514712725621    5.99148599619002
H         2.15524383198146    3.23240032031937    5.33451673949584
H         1.55752510406032    3.19275088008127    6.99560806879841

