41
CSD_code = OLEVOQ | q = 0 | S = 0 | Stoichiometry = C14H22Cl2RuS2 | MND = 9
Ru        1.11559717524463    0.65405749723171    2.64722377578983
Cl       -0.43172193723110   -0.80810255165790    3.64164431722478
Cl        2.33922902175146   -1.21133146948925    1.90908206689938
S         2.23857489582331    0.05745742367572    4.65442314883936
S         2.03507065006539    0.74480800010625    7.55803645002621
C         1.88836992558424    2.01560002193698    0.94321659850165
C         0.65486091537109    1.41560723228135    0.54781703957245
C        -0.49735849519805    1.55272557134782    1.32838334438269
C        -0.47570205151228    2.29698795940094    2.54620546354590
C         0.73705856362296    2.88785581175820    2.93465297869823
C         1.90691379923349    2.75231950059053    2.13818146623551
C         3.09248803358769    1.94261005537515    0.03599985288203
C         3.28264478846676    3.29364678875258   -0.66303268537668
C         4.35347203053370    1.52190893436697    0.79114803065159
C        -1.72626666909442    2.43703509696637    3.35552071576400
C         1.27074176891282    0.92043959892001    5.93363687386227
C         3.58779141941646    1.63827798879998    7.20689990226671
C         4.40307178523307    0.97381122622735    6.10728079003660
C         3.74126322208075    1.09352045726530    4.74173571053555
H         0.60720756590636    0.88241691216240   -0.39629943576177
H        -1.43616828492522    1.12368792569066    0.99311412653879
H         0.75967175830577    3.53404092169431    3.80720759915517
H         2.80220361829791    3.29565836264252    2.41822956674974
H         2.89346334114649    1.18119866095731   -0.72507822702693
H         3.50008735744496    4.07609227976264    0.06181681201852
H         4.11168422008458    3.23435140001024   -1.36348516992224
H         2.38531923518201    3.57311740357809   -1.21228929263511
H         4.16272541049231    0.58654003054165    1.31522643706859
H         5.16725496740883    1.36344717639754    0.08854264351859
H         4.66434746333163    2.28255619716596    1.50434074632824
H        -1.58456274032489    3.12030039123135    4.18993419949134
H        -2.54513391012372    2.79711029115931    2.73437228483468
H        -2.00627395978353    1.45699033309818    3.74843901671397
H         1.17494706632525    1.97547323837839    5.68032455238480
H         0.29911425904188    0.42884092228248    5.95730451600393
H         3.33575434020289    2.66864541004771    6.94937011961309
H         4.13229541993886    1.63189232605259    8.14916700996514
H         5.38687456483652    1.44873735874627    6.06444722118186
H         4.54480014286750   -0.08132899953246    6.34688050446121
H         4.38723839665670    0.70522955342608    3.95515743316369
H         3.47085092579197    2.12736676066372    4.52312149582979

