55
CSD_code = OLEVUW | q = 1 | S = 0 | Stoichiometry = C18H31ClRhS4(1+) | MND = 8
Rh        3.22664621636088    8.08389002578630    3.30241143511879
Cl        2.72970421047629   10.15452726208277    4.21186106295332
S         1.69840706354345    7.12805533851765    4.93741054831295
S         0.78239641429972    7.29751615789970    7.76644016219503
S         4.89102449153216    8.10722991607201    5.03811317690706
S         7.30304276170184    6.87260711013029    6.23657034894209
C         2.17503554218847    8.19988179295463    1.39542957135404
C         2.38697240328904    6.80985150842696    1.69127387569640
C         3.79507712817233    6.58345177345403    1.78636882676292
C         4.46573037735599    7.81925712248056    1.46564650667473
C         3.46843277081481    8.81438018476780    1.22733790140866
C         0.88992306961593    8.87260100725965    1.04295161607544
C         1.36110263931051    5.73246683868581    1.76467681923855
C         4.42051871970093    5.23301203104081    1.90321439642349
C         5.91869319092855    7.97493024577952    1.16652630555670
C         3.68625721696391   10.19898226230734    0.72435646462641
C         6.11290378331879    6.76098424371834    4.87954560289477
C         8.07217579742892    8.45363146345353    5.75291995168195
C         7.08152677349021    9.60835602325209    5.76820764819066
C         6.01956559546273    9.49232354635178    4.68484552078580
C         2.05815288662161    7.79789537853858    6.59648292223389
C        -0.59528639904592    8.23916949228206    7.03646890581801
C        -0.92380891606934    7.74469338148539    5.63683990875721
C         0.16547199457062    8.07243441595471    4.62644386221820
H         0.76561583927928    9.79774222002630    1.60372153143992
H         0.90304263868209    9.12840278769269   -0.01710927391958
H         0.03294298524993    8.23130857566965    1.22807224684855
H         0.35185444069089    6.13076372628215    1.71882122653566
H         1.50143472924018    5.05959272837462    0.91778357845427
H         1.46477210312484    5.14321912494663    2.67475997550559
H         3.90834378588819    4.62588005574629    2.64642390587971
H         4.34002586788936    4.72135787538626    0.94269596289863
H         5.47348645744922    5.29245013024195    2.16339498208449
H         6.52630908711306    7.24037826790163    1.68988348485839
H         6.06469688549427    7.81862501865155    0.09595834835063
H         6.27627092859883    8.97578808655969    1.40073625625937
H         4.69998418079811   10.54238340350921    0.91178157201697
H         3.51174182084476   10.21445668278732   -0.35269115137735
H         2.98991541089714   10.89607542022068    1.18575174369173
H         5.58431043897220    5.81653364050384    4.97631938459516
H         6.62434572721261    6.83435015677459    3.92228279633189
H         8.85943575425549    8.61500874914852    6.48698539694355
H         8.52677991751599    8.32428536348146    4.76918829059446
H         6.59986722200072    9.66343148772527    6.74637067744256
H         7.63023858093674   10.54010990209544    5.61052434062566
H         6.46614217585793    9.33480702486927    3.70220892235181
H         5.38414313525128   10.37708635580568    4.66517636195296
H         2.99618532218271    7.36509897513258    6.93293295919696
H         2.12915014429142    8.88218384412669    6.51797562000747
H        -1.43637014890761    8.08273933437234    7.70911540978296
H        -0.32579061203677    9.29611524162187    7.03778831283018
H        -1.09629867224812    6.66659590286615    5.66318197153673
H        -1.84573184067151    8.22690802278412    5.30266100475974
H         0.42899214262230    9.13145250188006    4.64803300772583
H        -0.14890218045170    7.79144087006505    3.62312781295691

