40
CSD_code = OLEWEH | q = 1 | S = 0 | Stoichiometry = C14H22ClRuS2(1+) | MND = 9
Ru        1.33594970512541    4.29206143059220    3.15808951616558
Cl        1.16518939804731    4.77174707341100    0.88543946417525
S         3.63008601524442    3.87923330399958    2.84426714635736
S         1.39312827388757    2.00282296045534    2.61597083733662
C         1.39283346416915    6.25116582940420    4.38703048852760
C         0.24321724311490    6.28506630246270    3.57940202357564
C        -0.71235054608803    5.24134533446658    3.61974727833910
C        -0.55643837221776    4.15183440818373    4.49960992852542
C         0.60016910333658    4.11572091266562    5.32585681385861
C         1.55814084696325    5.13640126420067    5.26105015102502
C         2.39886366607772    7.37491100849116    4.37529960208546
C         1.79657355525398    8.61033515813975    5.05427907252358
C         2.85238906492813    7.69591839173615    2.94830577227819
C        -1.62228003417162    3.11141470174890    4.62877602969236
C         3.80989362217210    2.43555620551554    3.96408341543236
C         2.65677247880763    1.44689881685770    3.82805616232012
C         2.48603389518761    1.97059976985412    1.15457383399450
C         3.65654367773556    2.94108107675163    1.27789257647842
H         0.06198919081877    7.13654977063788    2.93403654884504
H        -1.61269847617756    5.31895798171674    3.01928987722834
H         0.69518168566481    3.33105449153645    6.06813681465249
H         2.39680244256256    5.13133215262222    5.95017494328962
H         3.27532878952685    7.05633187217039    4.95156069038798
H         1.51390972590997    8.38809815457482    6.08135156270691
H         2.52813213714593    9.41295344728204    5.06457186826070
H         0.91507327917198    8.95623498940888    4.51941860908871
H         3.71407723138301    8.35638802071674    2.97542035499938
H         3.13189291809522    6.78202641484308    2.41984650847398
H         2.06657698504321    8.19275739256122    2.38587468690583
H        -2.36540361464134    3.45255195746108    5.35172211937927
H        -2.13029359281599    2.94883432566299    3.68053010104615
H        -1.21872973865979    2.16523510460727    4.98295130668758
H         4.76882427022153    1.97896224375362    3.71975524166063
H         3.87041487819205    2.85208736171229    4.96886920090373
H         2.12514299534315    1.31435459171835    4.76920063904350
H         2.99609884176685    0.47062898215165    3.48267040671464
H         2.81417670710912    0.93774337543511    1.03611521071051
H         1.83795894176725    2.25020469437267    0.32298908504621
H         3.60750818174378    3.70560494185507    0.50154618134233
H         4.62182116325717    2.43609378425823    1.23893792993457

