41
CSD_code = OLEWAD | q = 1 | S = 0 | Stoichiometry = C14H23ClIrS2(1+) | MND = 8
Ir        1.57422905477360    1.00612223117086    2.63107168985400
Cl        2.25672952206280    0.25092367216189    0.55322723685039
S         3.95346940133470    1.07334433699204    3.27114265985851
S         2.06247317459681   -1.24689662232441    3.54861597921348
C        -0.59851704072300    1.26479794144553    2.73422622568930
C        -0.11039286385850    2.20655476942478    1.77302556541999
C         0.83150559192400    3.05598155996498    2.44283254971317
C         0.80581511352916    2.72725091082069    3.85978494544907
C        -0.05989055286242    1.62955450101608    4.03702978040207
C        -1.67787866696126    0.26572203971953    2.50299126949178
C        -0.55049799043778    2.34259404919032    0.35988102799441
C         1.48855934680760    4.25174108898854    1.84781136279892
C         1.47180606497698    3.53843851964781    4.91701456823642
C        -0.50784790629079    1.02940930707558    5.32513422679937
C         3.74515907049869    0.49236794423238    4.99671738561495
C         2.85318354448693   -0.74253725042670    5.12319777238541
C         3.60127631592601   -1.65385395860114    2.66322100772956
C         4.59138720861047   -0.49124270398146    2.58773181709902
H        -2.64718615604925    0.76146373409596    2.57362514473840
H        -1.59814593812638   -0.17478030616343    1.51237581365788
H        -1.64883005392662   -0.53006755262602    3.24216015928885
H        -1.29910316933625    3.13336730708215    0.29609728748665
H         0.28027796316798    2.61347539624592   -0.28687839079093
H        -0.99142923624030    1.42102063917516   -0.00828601915450
H         2.37332492713543    4.54103199034682    2.40817644001791
H         1.77143739137407    4.06675807370652    0.81463563747909
H         0.78860708387990    5.08865765694189    1.85845762724561
H         1.46440042430683    3.03207756546885    5.87851021211416
H         2.49865311517092    3.77876292105352    4.64751456820266
H         0.93407694726321    4.48036370774672    5.03111339655684
H        -1.49722181359328    1.41605578617324    5.57242296279498
H        -0.58776419702426   -0.05334379129746    5.25203710903069
H         0.16303757391752    1.28182085797397    6.14205010581674
H         4.74742211224074    0.29364458584332    5.37628299325588
H         3.33397187417893    1.34040608971782    5.54064503046791
H         2.03835476025328   -0.57201254257581    5.82408989071499
H         3.42060706074352   -1.60937576842603    5.46092494472188
H         4.03419936068160   -2.51543029638243    3.17198253900656
H         3.27597542917066   -1.94707547029499    1.66555720049004
H         4.83320331572292   -0.26362617835936    1.55022005482983
H         5.51006283669025   -0.70666674196467    3.13372822142664

