171
CSD_code = OLEZAI | q = 0 | S = 0 | Stoichiometry = C64H102Cl2P2Pd | MND = 4
Pd        8.98485682894609   11.81106839840926   14.15800333922698
P         7.55456307291906   11.19588618195584   12.46112871437434
Cl       10.76237210783751   11.32943994580528   12.78897009840975
C         6.41218625598400    9.76136084212713   12.94467250811396
C         6.02317203976120    8.88225212606630   11.75633655074175
H         5.32763936971560    8.11300705615802   12.09129218151990
H         6.89101560456369    8.39217391791354   11.32034428273618
H         5.53633484271544    9.46051615954067   10.97380407377262
C         5.15933498978530   10.30491312211797   13.63126447774869
H         4.61107714453509    9.48395719019323   14.09265930790440
H         4.49843208774361   10.80146889552442   12.92602965769020
H         5.42811748628548   11.01732940244074   14.40889975328137
C         7.22081036086315    8.94147926173397   13.95755129710817
H         7.49064398416838    9.57300305017622   14.81452401365994
H         8.12862408059531    8.54651959310269   13.49839608664234
H         6.63389137141686    8.10035103152579   14.32582867128485
C         9.08596073770369    9.61200186095665   10.78598900640339
H         9.34649113907058    9.10988038606533   11.70542448614932
C         9.63768823856640    9.19196096309377    9.58263586356384
C         9.30085964497309    9.89435739576574    8.43473400034563
H         9.71580848969667    9.58707333898108    7.48986193803801
C         8.45609785323152   11.00085601661496    8.45996420755671
C         7.93230907240218   11.40274512755391    9.67803285457294
H         7.29649289400107   12.26911854182055    9.74107253393171
C         8.22673922891540   10.70009639241256   10.84028613385004
C        10.60212690972087    8.01609497160458    9.57939498988029
C         9.94727463939279    6.81317874051518   10.27330842379887
H         9.01041740047683    6.55674418864759    9.78135186110400
H         9.74359272933355    7.01977006972780   11.31918049884335
H        10.60816945192297    5.95020955911707   10.22542930325116
C        11.86712413550803    8.43727296218855   10.33921507129085
H        11.62638565578768    8.81999029765685   11.32636134299569
H        12.38165221355491    9.22771699674445    9.79710845358834
H        12.54370166190385    7.59181402779587   10.44626519565318
C        11.00453501696449    7.58005405457189    8.16766921558085
H        11.66969897845451    6.72108287683543    8.23133002499345
H        11.53696642439415    8.37232968820743    7.64680775259407
H        10.13299507293400    7.28998148401170    7.58402357963169
C         8.14594221494019   11.73035655940926    7.16025140488945
C         7.51249352794851   10.74561208608677    6.16707035935037
H         8.18900104097016    9.92991322257149    5.92838987419499
H         7.25985939234935   11.25804789949962    5.24101645599096
H         6.60204639105705   10.32144727530798    6.58617369552068
C         9.45141364541169   12.29007207163900    6.57921866854944
H        10.15702357449347   11.49501444825934    6.35456422471403
H         9.91781087329413   12.96700603455846    7.29175679692376
H         9.25039614571088   12.83753902392274    5.66051143770620
C         7.17089940737685   12.89460713034314    7.35815551251454
H         6.97399111525667   13.37022021886447    6.39905254729284
H         7.58443317607242   13.64565114826958    8.02733198687975
H         6.22335147027938   12.54354534824980    7.76144717825988
C         6.97474037728402   13.85450381583500   12.48296538740003
H         7.88769457271377   13.87238353986070   13.08477253186537
C         6.28558831788528   15.02697897699311   12.19081819387249
C         5.13751227382224   14.92529148602604   11.42127065926507
H         4.58141410297050   15.81749699993135   11.18885845670057
C         4.67096753734763   13.70768063151985   10.92556361938145
C         5.37735944728685   12.55830800899370   11.23632932209445
H         5.06407310994580   11.59937010967352   10.85869726043715
C         6.51940293927569   12.62704027250128   12.03008913988169
C         6.81608320540885   16.34883742232579   12.72209747499531
C         8.22166486475773   16.57904784637105   12.14853995236967
H         8.89570213847328   15.76885801775387   12.40973229896922
H         8.63711511235187   17.50821456947695   12.53347391156277
H         8.17672973898662   16.64644823544950   11.06311708855257
C         5.94166030646531   17.54503339284742   12.33683417456246
H         5.89441829039377   17.66648721143110   11.25671394657449
H         6.36884330673295   18.45346884471097   12.75709047915238
H         4.93321829280540   17.43702943730601   12.73002515174751
C         6.87376222323349   16.27149205100485   14.25313800197836
H         5.86983286296322   16.17606428751371   14.66142836550660
H         7.32903164968294   17.17295613254827   14.65919298885166
H         7.44676575225916   15.40862114951175   14.58120069880108
C         3.40885051905016   13.68987474725499   10.07491607761602
C         3.60018379429432   14.60713736727192    8.85871605350989
H         4.45653530355707   14.28320913669942    8.27093625539611
H         3.76478277669738   15.63806438702107    9.15872089181052
H         2.71593114754183   14.57688566307531    8.22555673538298
C         2.23421125115702   14.19186954608812   10.92628467757009
H         1.31335562377671   14.16756924119666   10.34734246806380
H         2.39787080533653   15.21168063093286   11.26341551720812
H         2.10857769632154   13.56033140724363   11.80338173487189
C         3.06316801087303   12.28858247227983    9.56263462919674
H         3.86543280316156   11.88463745934104    8.94840565650119
H         2.16565478320990   12.33833407790961    8.94939521032567
H         2.86585112290807   11.60617504088293   10.38635687495687
P        10.41455464317998   12.43030119054976   15.85354034368887
Cl        7.20754861171707   12.29753772703920   15.52599985948725
C        11.55691480824992   13.86482505113188   15.37003694161565
C        11.94592328589144   14.74394752367016   16.55836710440323
H        12.64153416351017   15.51313382935939   16.22343842839567
H        11.07808342968026   15.23408432588899   16.99429732234087
H        12.43266303917102   14.16565521085332   17.34094052681726
C        12.80973932429638   13.32122093669647   14.68344909781955
H        13.35791255084651   14.14215933795943   14.22191825779665
H        13.47071618896585   12.82484967723711   15.38874794349003
H        12.54095016208290   12.60865440089491   13.90593521939432
C        10.74823786036797   14.68460500101128   14.35712543703693
H        10.47859800828249   14.05309936929633   13.50007230104846
H         9.84030751184605   15.07934961797224   14.81624192234239
H        11.33504419628275   15.52587802002246   13.98899679450814
C         8.88320308020899   14.01413156334132   17.52872351653092
H         8.62270145922186   14.51629672792217   16.60930398837954
C         8.33153094143386   14.43419888649897   18.73209742724926
C         8.66836828679638   13.73179239423624   19.87998969144543
H         8.25346908542607   14.03910016568814   20.82487720596192
C         9.51306521931462   12.62524435500605   19.85473418165348
C        10.03680730698789   12.22333106002115   18.63664902796505
H        10.67255510579302   11.35690924626229   18.57357866143308
C         9.74240445731003   12.92602053636386   17.47440585439044
C         7.36712162655432   15.61008752187489   18.73537409803515
C         8.02195081161125   16.81300460950606   18.04144104332552
H         8.95882869476150   17.06943452673045   18.53336013981864
H         8.22558846444586   16.60642120869304   16.99555860585877
H         7.36106148129198   17.67597679371517   18.08935328791142
C         6.10210596343096   15.18890657263997   17.97558606747714
H         6.34283158763319   14.80611656933758   16.98846429051052
H         5.58755068182850   14.39851506940613   18.51774492272895
H         5.42555873441377   16.03438053391320   17.86847668496738
C         6.96474135373746   16.04613778921508   20.14710563129559
H         6.29957235682526   16.90510740621039   20.08347668137205
H         6.43233323095324   15.25385552813837   20.66797970210894
H         7.83630112211935   16.33620466600625   20.73072330064105
C         9.82319168835867   11.89573512870100   21.15445013672255
C        10.45677970176990   12.88043613267538   22.14758623304690
H         9.78039646544896   13.69625670002036   22.38620167141690
H        10.70933275066146   12.36802949473427   23.07367861338999
H        11.36729147731531   13.30443515970632   21.72845696068386
C         8.51769703739667   11.33615658090944   21.73556575257238
H         7.81217761269689   12.13128827686870   21.96024156641708
H         8.05119721670813   10.65926327020028   21.02305661227530
H         8.71869253264224   10.78867817164611   22.65427148423461
C        10.79811105399942   10.73138404554328   20.95653749965444
H        10.99499883206707   10.25575795436638   21.91563815877827
H        10.38448351185976    9.98037725742368   20.28737795368152
H        11.74568227886811   11.08234626431653   20.55321468317745
C        10.99434438630089    9.77173889800260   15.83156900141307
H        10.08151218436589    9.75414293862538   15.22951821557462
C        11.68341693953752    8.59919445183442   16.12377126756494
C        12.83147011053908    8.70081211731465   16.89338385497925
H        13.38751176212146    7.80857185021425   17.12582195071287
C        13.29807295613814    9.91839807242099   17.38911780822897
C        12.59169534132574   11.06779236663935   17.07841273091638
H        12.90499803291224   12.02671207570096   17.45607536889691
C        11.44968935549394   10.99913089312134   16.28459876223324
C        11.15288638170191    7.27730216990845   15.59257986509460
C         9.74731518839023    7.04718505745642   16.16620005489104
H         9.07332649203519    7.85741138210485   15.90500710353765
H         9.33178855532846    6.11803309622694   15.78131511990326
H         9.79229166045418    6.97981791588119   17.25162434846780
C        12.02723487349294    6.08105579108609   15.97789509221177
H        12.07451908007869    5.95963559802413   17.05801774186646
H        11.59994947285843    5.17263247192149   15.55770976764814
H        13.03567145746756    6.18892436344212   15.58465182031931
C        11.09520254345944    7.35452661060315   14.06153839041194
H        12.09912674336164    7.44998128976451   13.65324216843804
H        10.63998810907031    6.45300177992257   13.65555526993741
H        10.52214392319575    8.21733476371554   13.73342038681720
C        14.56023839652754    9.93620854449138   18.23970703304401
C        14.36907584995438    9.01890860945173   19.45590471361125
H        13.51273505655735    9.34273357080711   20.04375705715991
H        14.20458078186650    7.98796443222153   19.15590360882551
H        15.25337382194582    9.04925725061125   20.08899937890453
C        15.73484529824779    9.43430183043225   17.38823957061376
H        16.65571995387550    9.45854221848592   17.96715519058294
H        15.57117118390331    8.41452533130429   17.05101079048005
H        15.86045226683504   10.06593130933535   16.51120473773726
C        14.90589392735667   11.33750303286576   18.75200976797521
H        14.10367468304561   11.74137857154436   19.36634502360835
H        15.80347951861241   11.28777944981187   19.36514644731590
H        15.10308546254630   12.01995830780978   17.92829797121863

