81
CSD_code = OLIBEQ | q = -1 | S = 0 | Stoichiometry = C18H54CuSi8(1-) | MND = 2
Cu        6.46251947653550    0.98508396432881    4.01802910551778
Si        7.07991673044145    2.89577341957301    2.77863713074688
Si        5.36523902308299    4.30926298210175    1.88754461423527
Si        8.45337773616029    4.47177498603486    3.95164199958420
Si        8.40422718701840    2.44401698538765    0.83189664877809
Si        5.97715099262480   -0.95734787851712    5.26726142039491
Si        4.31463385085691   -2.45737369146271    4.41806750344932
Si        5.24858510315078   -0.64676316451182    7.52781423566468
Si        7.85686648447410   -2.41943542095040    5.55225940131875
C         5.81081361778251    5.55013947512345    0.48735913719249
H         6.60075981537161    6.22173126356519    0.80779742182202
H         4.96462290657103    6.16029161242151    0.17857484167237
H         6.17132114640343    5.02136007106372   -0.38968529920287
C         3.93922915800346    3.25196333918337    1.15672307358736
H         3.54164851833605    2.57779147836950    1.90944041563717
H         4.30071518585031    2.63942692100365    0.33650791525655
H         3.11149494769218    3.84927754261097    0.78091479465546
C         4.53011135024340    5.38197371791113    3.24378236626091
H         4.20380046705012    4.75780849389596    4.07007750259946
H         3.66097300195525    5.92625394426909    2.88152604711175
H         5.22919936389914    6.10919413728363    3.64529772319554
C        10.23265262119996    3.80554044509135    4.22529602904375
H        10.19899666296330    2.81891809438316    4.67753546447934
H        10.83128537574765    4.44200431334928    4.87290057103472
H        10.75940924470086    3.70961404906047    3.28072686243568
C         7.76689562459692    4.76657754653532    5.71956612711564
H         7.70009996091878    3.82821890065942    6.26212695577961
H         6.76570180571207    5.18438166399082    5.67643155143051
H         8.38039706533966    5.44365176541737    6.30979552426247
C         8.69234595630499    6.23570710834333    3.22432887688329
H         9.36088617260341    6.85115148007232    3.82261620575795
H         7.74028495067463    6.75352429649824    3.15903833634040
H         9.10272151586669    6.18431040487159    2.22100524162855
C         9.66734005884709    1.04914811772147    1.20679641460798
H         9.15387174350580    0.15044629943635    1.53569363372614
H        10.33795939550333    1.34635852296483    2.00738792261498
H        10.27909142694216    0.78140114608098    0.34818907824097
C         7.34808241736381    1.76753484862668   -0.62169209552613
H         6.73981782898433    0.93231924801224   -0.28799438722707
H         7.94951166248886    1.42040366105984   -1.45874683477484
H         6.67197716459392    2.52986932035681   -0.99664129052123
C         9.45591838709776    3.85687792032055    0.06051828704715
H        10.18882435633404    4.22002258563144    0.77450258174813
H         8.82673070711087    4.69746316513753   -0.21396056333403
H         9.99374375131698    3.54271454526377   -0.83154228941727
C         2.78002809898657   -1.47926913191843    3.80670497510477
H         2.32278191546446   -0.93494294651037    4.62726142744614
H         2.01448932318771   -2.11424927909520    3.36637975323016
H         3.06944727556296   -0.74774463349156    3.05813296897566
C         3.59286673810485   -3.81049207632132    5.57848401297404
H         3.09693803354426   -3.35634060889590    6.43086735434945
H         4.38350706738803   -4.44567635355718    5.96462475219128
H         2.86882969792482   -4.45166362342455    5.08017041825132
C         4.93002283974964   -3.41382853647892    2.87118662756100
H         5.32193588373256   -2.72155532580230    2.13218726238144
H         4.14765773328098   -3.99697968069514    2.39084891686179
H         5.73382875748624   -4.09513154440209    3.13305173401962
C         6.22192304942741    0.79344674027413    8.34139871332379
H         7.28364376104896    0.56810490072823    8.36928465510111
H         5.90403228942096    1.00561577237542    9.35976981943203
H         6.10303951764246    1.70577480161054    7.76439078980826
C         3.40751174515482   -0.11188443030867    7.63575818331814
H         3.10404532521188    0.16779669743066    8.64204147346725
H         2.75233474098234   -0.91221578303741    7.30564180561484
H         3.22483670821752    0.74183982411814    6.99027808626795
C         5.40923083643856   -2.10472952558606    8.77139604691050
H         6.44901425468653   -2.39591234629586    8.88474341207846
H         4.86668311601644   -2.97426896323005    8.41443560476776
H         5.02657773033175   -1.86053070052421    9.76014001437152
C         8.83390818913210   -2.56142929592699    3.90707271774210
H         9.16280778622231   -1.58074428783824    3.57619183596801
H         8.20497015875376   -2.97062885951225    3.12227825386640
H         9.71565120355856   -3.19363583302235    3.98482587164911
C         7.56114121885199   -4.23799479625622    6.10243468996460
H         6.95982178796914   -4.76585656907502    5.36853563273198
H         7.02473573142159   -4.27094154261385    7.04527893939578
H         8.48701770613627   -4.79478100798029    6.23059659741021
C         9.12631093253377   -1.72295241714131    6.81242287262587
H         8.70773616413810   -1.70303719726334    7.81406754929744
H         9.39180305959254   -0.70250020100291    6.55318160066254
H        10.04703770239554   -2.30052486690372    6.85178842793096

