70
CSD_code = OLIJID | q = 0 | S = 0 | Stoichiometry = C27H37BMoN2O2 | MND = 10
Mo        6.43744339997208    0.12369678247236    3.11071349181316
O         4.19569732238732   -1.13406222368687    1.42957466857114
O         7.54293192529789   -2.34767939443605    1.65855006577560
N         3.97020763822698    4.81507453684705    0.53937829788420
N         2.23191001090926    6.02123860301789    0.18436080520577
C         5.01215701418078   -0.65956598167327    2.08639924495377
C         7.15691775023200   -1.42608290630389    2.22610532455658
C         4.93693271426369   -0.26132579179917    4.79730175498378
C         5.82725197436843   -1.35522281586722    4.76177199446053
C         7.18569681832359   -1.03116611137956    4.94844339541986
C         5.36399088764751   -2.76154595288555    4.50361060900596
C         5.99082846876843    2.26049802803344    2.42475398856600
C         7.11926096732389    1.76896175881969    1.70428624819683
C         8.18023624967688    1.51981528690924    2.61646348450329
C         7.75892885421272    1.96825065628629    3.90191684081301
C         8.45207224060892    2.12184153516630    5.12201890132389
C         7.80538977930701    2.69484396579984    6.18297119464331
C         6.46831019467438    3.12956400106808    6.07751073271903
C         5.76679757763915    3.00465178854498    4.90940734016973
C         6.40011810044218    2.42590081206658    3.78776467295718
C         4.77085691997661    2.86013579219299    1.78884792801391
C         5.14592733648701    4.16062700369160    1.05154315015386
C         3.24744276132137    5.83439884831088    1.05321102272417
C         3.39981715714223    4.36444157029698   -0.62197628470334
C         2.30818375473767    5.12467877686171   -0.84486553093866
C         1.17318714436098    6.99163324499671    0.22844034098808
C         2.05522171117399    6.51871498366896    3.30542779492873
C         1.72573526644835    5.06131146682475    3.63059957004401
C         4.74661824398343    6.26538811273441    3.32671257130183
C         4.82485506501899    6.89295991667622    4.72119493448351
C         3.65620837145600    8.30282901314962    1.97897326966997
C         4.46613331117883    8.50748770590029    0.69748993361926
B         3.44003811637021    6.71892413465963    2.42449094242480
H         5.12271045030734    0.50794682221539    5.54518923678609
H         3.88114587147799   -0.47435573917415    4.66326492193434
H         7.90152727566677   -1.84653090751710    4.92831162947502
H         7.42287944682134   -0.27265129711288    5.69243669251049
H         4.45844718514855   -2.77899818177895    3.89736189746863
H         5.13973221324762   -3.23248453475964    5.46360126472313
H         6.13453223309839   -3.35208418223663    4.00835302335559
H         7.20988464395111    1.74407679094484    0.62232615126663
H         9.19935822212179    1.28627003706232    2.33751821645915
H         9.48552639534308    1.80985800758724    5.19627078607144
H         8.32412697158524    2.83110148825695    7.12051927870920
H         5.99957212841014    3.58373666007441    6.93766424194597
H         4.74878973603784    3.36120354455972    4.84021642765552
H         4.02234588345953    3.09059108764079    2.54913491732864
H         4.32362442824241    2.15991260506130    1.07691029087130
H         5.67468146817633    4.83458205135875    1.71926837371908
H         5.79744448932072    3.92329138117501    0.20448188062693
H         3.81724782888103    3.55878894859093   -1.18969340514285
H         1.59396977528953    5.10504679480401   -1.64211430234390
H         0.27035337910701    6.55109119938997    0.65608888089788
H         0.95319613147777    7.32550472444607   -0.78634626724419
H         1.47837809383925    7.84018679063379    0.82969589466213
H         2.16037744384743    7.05823177495315    4.24695327673187
H         1.17997587355966    6.95593234487471    2.82321437213525
H         1.57241768082363    4.47928786499900    2.72056660923456
H         0.82017666735840    4.98180870951809    4.23394613103290
H         2.53681852989660    4.60215979231290    4.19089674308582
H         4.77704879319732    5.18762489453083    3.49106700249660
H         5.67465151208697    6.54089607288466    2.81244282403702
H         4.76311485190832    7.97705301757631    4.67191286798122
H         5.76615447129924    6.63080105481736    5.20792201488428
H         4.01460564572849    6.53756541419620    5.35273305401922
H         2.71856587759755    8.86017698277781    1.88787277380581
H         4.19698158991381    8.80435060894862    2.78212042029199
H         5.41711599179980    7.98186789166603    0.76354257504912
H         4.67939381778486    9.56390371177128    0.52869477341305
H         3.93812195404102    8.13403862596624   -0.18003816917355

