46
CSD_code = OLIJOJ | q = 0 | S = 0 | Stoichiometry = C20H22MoN2O | MND = 10
Mo        2.15468581183524    1.70820222249840    2.12922173442068
O         1.14595244829532   -1.15271919385012    1.81700768790424
N         0.15270588022339    3.60393143264483    3.43918854228314
N        -0.62360290417870    1.63002300085276    3.72926610757912
C         1.44868727241504   -0.05699051754441    2.01510747449037
C         3.09233755140596    2.33286644601723    4.10302528272487
C         3.15816235200099    0.92652167142575    4.00037965609685
C         3.88335814231194    0.45165622227971    2.88065088722640
C         2.59324154145462    0.01219286525242    5.05244154017232
C         1.86187717504448    3.67079050224520    1.01145225824590
C         1.37843753156859    2.60034829866983    0.20191066925599
C         2.47623304257552    1.76998843341492   -0.14122834978656
C         3.66402710353508    2.38864435939698    0.34329188802472
C         5.02635995636027    2.08113764420413    0.17244601028463
C         5.96728424424260    2.92114257674859    0.70688671313765
C         5.59557909871096    4.08365930245907    1.40870569443684
C         4.27850667101172    4.41729047013288    1.58607519631664
C         3.28353336255015    3.57379501002268    1.05798847258087
C         1.06657230659169    4.82729627672546    1.52868637292283
C         0.96263882414053    4.72788473055629    3.05603215428230
C         0.43305288375727    2.29778322575390    3.21419681601257
C        -1.05453773329107    3.74595155387367    4.06692349832529
C        -1.54120916131369    2.50081768363542    4.25348261641759
C        -0.84937085877250    0.21234700174358    3.72266529571670
H         3.99015763273803    2.89033319070539    3.84307709490255
H         2.58607012570305    2.73456401584937    4.97882778237712
H         3.97942880455304   -0.62531941443674    2.77678113246358
H         4.80085000192370    0.97944171818364    2.62544874527740
H         1.73955294483255    0.46508286075178    5.55741821836373
H         3.36840449890108   -0.17131438781675    5.80153815623487
H         2.30412781360830   -0.94931588857673    4.62984010150579
H         0.38527901879130    2.54335038503128   -0.23311988891799
H         2.44385060781901    0.95851597880977   -0.85539013542554
H         5.31491292585501    1.19987565462093   -0.38519027833437
H         7.01853487568958    2.70343436815416    0.58242743746898
H         6.37083459809209    4.72571906182917    1.80261927533183
H         4.00608952054862    5.33073691926453    2.10109564405983
H         0.06107006485665    4.82556918143993    1.09594731097762
H         1.55256389626125    5.77271026830305    1.26853642808851
H         1.96560005009867    4.61231666401637    3.47620685650225
H         0.50514989778757    5.62973274219696    3.47162813744326
H        -1.46034964408970    4.70083362327882    4.33204439262755
H        -2.45238579242170    2.17333911187373    4.71062375618064
H        -1.09567607533222   -0.13098513538537    2.71696274035721
H        -1.68033535498169   -0.01549153507085    4.38945138576988
H         0.03915704629071   -0.31619060218233    4.06022148767355

