31
CSD_code = OLIKUQ | q = 0 | S = 0 | Stoichiometry = C14H8AuF5N2S | MND = 2
Au       -2.62110539596259    5.48925910774779    5.95491447003633
S        -4.56709342515937    3.15067870153383    7.17345989771837
N        -2.88086271792060    2.54156564543200    9.03283116884429
N        -2.21521372800492    4.28640122225901    7.57398894186890
H        -1.35206977651374    4.36742816060631    8.09242995958840
C        -3.05210679407849    6.63797570335687    4.37972904899662
F        -1.00652098415223    7.80214908626477    4.52462483683948
C        -2.18939652635307    7.61549896739879    3.90093355036192
F        -1.58927222075728    9.35431023581705    2.39569886832210
C        -2.46825191796076    8.42616521903168    2.80733750691684
F        -3.96676739077312    9.04002073840851    1.07707721173324
C        -3.67358259257199    8.27006109020969    2.13532679655937
F        -5.74111986974350    7.14112679502597    1.93542429852735
C        -4.57115512720937    7.30551043001805    2.57444618399791
F        -5.14382331377771    5.59513381424520    4.06671204840961
C        -4.24271137874885    6.52170325400176    3.67359963419395
C        -3.04356217252700    3.38893150054040    7.98225792608242
C        -4.97511987301473    1.86934732229838    8.30569973118335
C        -6.12974963018559    1.11071544494256    8.33554453987984
H        -6.90593204112676    1.27685376079895    7.60672381639026
C        -6.25649668646867    0.14460141295461    9.31820734245811
H        -7.14908874390665   -0.45885735932329    9.36190973255075
C        -5.24399900877863   -0.05131783052100   10.24697888469319
H        -5.35607496056483   -0.80781861211660   11.00797129162874
C        -4.08690736252719    0.70752736528417   10.21830096591071
H        -3.31557334485702    0.53434817850534   10.95205375361238
C        -3.94814513094802    1.67969547045177    9.23785287530409
C        -1.68106442996228    2.58005172077122    9.83503591219892
H        -0.80313827747532    2.37232817092278    9.21823715272460
H        -1.74338344350708    1.82702886827519   10.61404975811967
H        -1.56721173446089    3.56017641485859   10.30494189434816

