58
CSD_code = OLILEB | q = 1 | S = 0 | Stoichiometry = C27H26AuN3P(1+) | MND = 2
Au        2.45473723835477    5.48136337581080    0.14634493402514
P         2.81762919724251    3.59233598108629    1.30245633595019
N         2.26872575169356    8.93436742288693   -2.54702101166389
N         3.84347852608418    7.38095465283276   -2.55164142131081
N         2.12392359161396    7.21539581399238   -0.92129654814597
H         1.29791816070452    7.71439880201754   -0.62527422596750
C         2.27484050801817    2.09457795885212    0.44210277998609
C         1.10173040467631    2.17501912882380   -0.30358880226086
H         0.57783810935225    3.12118162861618   -0.36710903101657
C         0.61771583759865    1.05420360699343   -0.95127618556113
H        -0.29347430949551    1.11485773076523   -1.52664382269740
C         1.30678605550352   -0.14568040098212   -0.86295042198265
H         0.93086020970054   -1.02002054792542   -1.37144168371838
C         2.47792836622732   -0.22571102208194   -0.12630953492054
H         3.01257308103494   -1.16109200992993   -0.06059246503951
C         2.96644671461319    0.89018973449859    0.52978608367748
H         3.88012954051327    0.83039188985060    1.10519384867427
C         1.99006864700073    3.52785875094958    2.91083258335906
C         1.54827400400882    2.33039307011474    3.46532249586895
H         1.67470383409648    1.40319833641181    2.92391234633333
C         0.94417917861829    2.33777337947985    4.70977581150834
H         0.59890984447335    1.41100089966063    5.14198675963554
C         0.78160539039811    3.52870599047647    5.39997017876643
H         0.30944243786338    3.52757713991429    6.37023016440892
C         1.21913045777578    4.72223058096949    4.84664918640069
H         1.08914333868807    5.64894453233076    5.38456963150962
C         1.81846007995122    4.72500111419690    3.60112276194775
H         2.15985523580901    5.65035242488224    3.15282931220033
C         4.56853838072023    3.29760043418500    1.66167400129535
C         5.06230175053848    3.13235913139773    2.94999354341148
H         4.39048622350181    3.15766970180473    3.79638645018587
C         6.41936265536397    2.93169145317169    3.13929327960725
H         6.80493317396478    2.79907079928026    4.13860277235270
C         7.27898901207998    2.89925070161704    2.05399289948354
H         8.33499989049642    2.74019379830647    2.20837036692980
C         6.78753418994311    3.07182752335306    0.76797456357387
H         7.45918335924507    3.04638576204664   -0.07672302681757
C         5.43642890707462    3.27706105674251    0.57066252528697
H         5.03622220525512    3.41146260327582   -0.42729450658689
C         2.70781455059325    7.79839052984488   -1.93470759691789
C         4.13297295047874    8.26032707726240   -3.58659819023756
C         5.15756994791737    8.28555018325649   -4.51514044733759
H         5.93038165473376    7.53424759381979   -4.53502044625321
C         5.15847362831863    9.32102009009889   -5.43510423772057
H         5.94368901901049    9.36824268285186   -6.17246647407419
C         4.17026290600222   10.29775732542846   -5.42931996144350
H         4.20378266193410   11.08812885188627   -6.16183405315874
C         3.14076992390621   10.27825212815123   -4.50320237872651
H         2.37968499383997   11.04151932405742   -4.51035636645477
C         3.13496269727889    9.24658982654429   -3.58228209253465
C         1.09071482992583    9.66906269228156   -2.16628166362315
H         0.19674970006920    9.04879222863957   -2.26767724581311
H         0.99089314548201   10.53014318439169   -2.82081440079186
H         1.17104277152740   10.02307485927763   -1.13565539989271
C         4.62420718778519    6.22716838319966   -2.20002786237903
H         4.90910331085882    6.26465463487797   -1.14692191073652
H         5.52470501116158    6.22039717901281   -2.80855026281874
H         4.06227992700100    5.30883829638063   -2.38571193316459

