91
CSD_code = OLIPOP | q = 0 | S = 0 | Stoichiometry = C38H40B10P2Pt | MND = 4
Pt       16.18529484356072   22.37438175803519   10.59679064850961
P        17.02445150356236   24.50643429183315   10.84719707641911
P        13.97236709320171   22.81405800139368   10.03038071252780
C        17.57246791954728   20.94377668754716   11.07801448074110
C        16.26371885748702   20.33523532876987   10.67105539228742
C        18.62483186826679   24.76555935032277   11.68713201580655
C        19.64921084685160   23.88800822839033   11.34453894261835
H        19.45198473583743   23.10019909565716   10.62905721811883
C        20.89798615817523   24.01262699320823   11.92109854991196
H        21.68583413340118   23.32435971697229   11.65455863313645
C        21.13211783280320   25.01553757664935   12.84880353096606
H        22.10529151082131   25.11226142364078   13.30677310530306
C        20.11611199816429   25.89128556017738   13.19327047082380
H        20.29801846258050   26.67245655576841   13.91730665003082
C        18.86398186080785   25.77130951563254   12.61562205691996
H        18.07324274856193   26.45523377792734   12.89213414387200
C        17.36239720660184   25.33459358997723    9.26090814400204
C        16.96942651179215   24.67759516110133    8.10092353088403
H        16.48673013571678   23.70744414702021    8.18631214049417
C        17.19901335953290   25.24775356823786    6.86214458839709
H        16.89044645312817   24.73432593686499    5.96323035943150
C        17.83040352505900   26.47797553418485    6.77909048384490
H        18.01174312145953   26.92757390055127    5.81398723016650
C        18.24087088137226   27.12943869097730    7.93216950136025
H        18.74337438313910   28.08328053192549    7.86248824263830
C        18.01348860085775   26.56023095050035    9.17172950981361
H        18.34400492187687   27.05963372863476   10.07223850242584
C        15.93609090224787   25.65868174470537   11.74364798469450
C        15.54189958971026   25.23708077618242   13.01285242666865
H        15.95175447927048   24.31404989471669   13.40680566190525
C        14.65610984266298   25.98899061333478   13.75824993226887
H        14.35628347788557   25.65742296067023   14.74180219133615
C        14.15130038194563   27.17132071391482   13.23893717295822
H        13.45778475616074   27.76267660955395   13.81808815235161
C        14.53445899907924   27.59202321456390   11.97730038929626
H        14.14047283074057   28.51274396529157   11.57276949353954
C        15.41862551428212   26.83783501542604   11.22530053899964
H        15.70429210911343   27.16691675226871   10.23679177151553
C        13.15041897373021   24.44919185885118   10.04953177919366
C        13.49619951799735   25.32976030475281    9.02645974646602
H        14.20863658208084   25.01461247362007    8.27487472403376
C        12.93070603182795   26.58719046422160    8.96188261865602
H        13.19742561881021   27.25750509548971    8.15754543130303
C        12.02325355577663   26.98763044790619    9.93013039834547
H        11.57682229174641   27.96981392069826    9.88075702243372
C        11.69086424690238   26.12552342702134   10.96043612695577
H        10.98619831866038   26.43550453714478   11.71836843120682
C        12.24956333357203   24.86093092304779   11.02300359086160
H        11.97260788226134   24.19075372270129   11.82385277996608
C        13.36336285303203   22.19677627626617    8.42777978866074
C        12.07901888439339   22.48143177147601    7.97216981244701
H        11.42090424434997   23.09631439237382    8.57082821738553
C        11.64966094934746   21.97533163829687    6.75985901904489
H        10.65147604324493   22.19500607523623    6.40969951194767
C        12.49424911095902   21.18469159144259    5.99500284979026
H        12.15237527874937   20.79096534990209    5.04922205219002
C        13.77304587259174   20.90057868757085    6.44332339477801
H        14.43247172503127   20.28413427505950    5.85083188285638
C        14.20644512111230   21.40749840637261    7.65570495614580
H        15.20322043703247   21.18704339956349    8.01469747463610
C        13.01117911508979   21.85191626921915   11.23920860273741
C        12.17884851230410   20.79257734185729   10.90330217644545
H        12.00440750249121   20.54766974118076    9.86552182767253
C        11.58259646394823   20.04074098356441   11.90111378438454
H        10.93955683916912   19.21474879205340   11.63509037969789
C        11.81584248371177   20.33478766418538   13.23343278070613
H        11.35382195950142   19.73997715417195   14.00701656435760
C        12.65468399922126   21.38437829609549   13.57466089748947
H        12.84826625556120   21.60713168816877   14.61368858006459
C        13.25600388322431   22.13308757953882   12.58268192139239
H        13.92647595429295   22.94576345231359   12.83585861696882
B        16.61290483919264   20.29183808652213   12.38056238768972
H        16.04345171352991   21.04849030497860   13.09211335698424
B        18.35120518284846   20.12116273765447   12.32998235955865
H        19.02094779349408   20.70786817126795   13.10403257910979
B        18.92146000873545   20.02347266901050   10.64075049568611
H        19.94565744902647   20.54275670281828   10.36964132227840
B        17.57464838911708   20.13654457406046    9.53433850364336
H        17.58721289057970   20.80862696908943    8.55808222737216
B        15.84014184377826   18.96062474817998   11.54988601847844
H        14.70422537809047   18.72044661417664   11.76509530291102
B        17.26297841752246   18.70440246687438   12.63942719525337
H        17.17684762859909   18.18064114548572   13.69210916467634
B        18.69360229479467   18.53301184197527   11.59019981806492
H        19.62099876176583   17.89286388155338   11.93703175563507
B        18.19362054579964   18.55125362053487    9.87742666539926
H        18.74317944915932   17.92387534814534    9.04435394102627
B        16.41065117318766   18.86906636996908    9.85589514236255
H        15.62773924338050   18.56420867626262    9.02677057367636
B        17.12671382595444   17.81108977871153   11.10077732737577
H        16.92591897249237   16.64917542886670   11.09528454463262

