57
CSD_code = OLIPEG | q = 0 | S = 0 | Stoichiometry = C22H18N8O4S4Zn | MND = 4
Zn       16.47509154610061    1.37016167880485   14.72416351041092
S        14.46642138623810    0.44401658742556   13.95350859323162
S        16.52336666262756    4.08960866712196   11.11907263496744
N        16.85146713101929    2.62698701904814   13.20085048527195
N        14.72677314179175    2.45844622620004   12.08612977114528
C        15.95515518703918    2.90125946191555   12.27476626315904
N        12.77235887401990    1.28787804836361   12.23638163485907
H        12.32181155829109    0.52870759289590   12.73539501244876
O         9.94534531063044    4.41039737208440    7.60644515853078
O         8.39999494083760    3.01754291474588    8.14803447423501
C        18.00477430093643    3.33670008158631   13.03105369409530
H        18.80887766531222    3.18632613061223   13.73080672022919
C        14.04221361472788    1.52738671770370   12.66699339091715
C        12.01941815561735    1.86903414097566   11.23750293823765
C        12.46849376603873    2.92241096076206   10.43392457271265
H        13.46040840558411    3.31163789411296   10.58069702485224
N         9.51030368206823    3.49388904856852    8.27408279351703
C        18.03849666838704    4.17697170389911   11.97211168052829
C        10.36458783642950    2.93734643603423    9.28164850612543
C        10.72658130743097    1.36085145210880   11.04020014999633
H        10.37694540625669    0.54604906620404   11.65699494798809
C        11.64543784656629    3.44946071817475    9.46379039319788
H        11.97882795600091    4.26144287722115    8.83593760701377
C        19.13897126823545    5.06632787076067   11.52649940968255
H        19.99361255772509    4.95868994198229   12.18950379096347
H        18.81505151718539    6.10623642734322   11.52999885825869
H        19.44324636917383    4.81573865932084   10.51127754220167
C         9.90450070628819    1.88754127468912   10.07267548951987
H         8.90831737139251    1.50495100266330    9.91241036472155
S        18.48375466701393    0.44401610068747   15.49481361962074
S        16.42681342687008    4.08962702243052   18.32924231401023
N        16.09870898993655    2.62698237112743   16.24747841981332
N        18.22338457295978    2.45841195070092   17.36222783655105
C        16.99500951194979    2.90123946464672   17.17357856355443
N        20.17780633054542    1.28785968614627   17.21196368039435
H        20.62836017052410    0.52870309196495   16.71293584298319
O        23.00481707339565    4.41038731682947   21.84189252476845
O        24.55019204526969    3.01757499245250   21.30026752822740
C        14.94540426325662    3.33670112271490   16.41726697455069
H        14.14130802681220    3.18633697379177   15.71750432720055
C        18.90793738301145    1.52733994914011   16.78137769833148
C        20.93076304929870    1.86904380590116   18.21081283792814
C        20.48168038029834    2.92241388331111   19.01440070306472
H        19.48976348710059    3.31163801469845   18.86763360265165
N        23.43986727581253    3.49389053812064   21.17424412847900
C        14.91167040080371    4.17695411645422   17.47622257197533
C        22.58558315089867    2.93734948913026   20.16668049614421
C        22.22359814092378    1.36085895999848   18.40811977125059
H        22.57322281824309    0.54603114352581   17.79135680412919
C        21.30473145870088    3.44946162339012   19.98454088841528
H        20.97136110006014    4.26147225024401   20.61236268610759
C        13.81119134253667    5.06630251547802   17.92183679684092
H        12.95654503549642    4.95864069233270   17.25884380700124
H        14.13510541259288    6.10621432654232   17.91830492147831
H        13.50693198226386    4.81573609996723   18.93707031868370
C        23.04567575975313    1.88754947749874   19.37564730288997
H        24.04186060371388    1.50496504743791   19.53591561993096

