49
CSD_code = OLIPUV | q = 0 | S = 0 | Stoichiometry = C8H28B10NiP2 | MND = 4
Ni        7.88482034592822    3.86781480532649    0.10257270911722
P         9.01770161965025    5.72174356354992    0.29965607244219
C         6.14931495933849    4.60704642346219   -0.10418939661178
C        10.84506182965289    5.80196608319681    0.55374565516207
H        11.10982347210822    5.26806182091213    1.46377175208901
H        11.18177444784205    6.83393072888996    0.63357517267342
H        11.34979987103149    5.32466041736722   -0.28338650000218
C         8.47281868284233    6.80021028841242    1.68710942330523
H         8.63302588173854    6.28611309979292    2.63264511231553
H         7.40837992317219    7.00002690636188    1.58314502790539
H         9.02316904240083    7.73967782631398    1.68975645464392
C         8.85479890628871    6.90676992795814   -1.09692615403864
H         7.79968162104151    7.10372465189956   -1.27342723672290
H         9.27551379923565    6.46730815508946   -1.99890938642207
H         9.36980920830455    7.84023137750753   -0.87593752296668
B         5.34861988054263    3.86795580174459    1.24751766938467
H         5.90934000896057    3.86805725261314    2.28648061357524
B         4.72839796176642    5.30291507699449    0.45200803668124
H         4.73902291047074    6.33977788518651    1.01560847476404
B         5.16727934762981    5.29791391958327   -1.29036844765822
H         5.44625218789317    6.33409789268373   -1.78241324241705
B         6.11114782090408    3.86762332611658   -1.66666571122126
H         7.10554375032995    3.86752819707721   -2.31648762335170
B         3.67558823683052    3.86792723944301    0.77093588639863
H         2.81033363298901    3.86803990283164    1.57185884502644
B         3.55333211707064    4.75856726371391   -0.77636277610107
H         2.60025263248646    5.40898656284771   -1.01847897944481
B         4.40832979621567    3.86759597965671   -2.07191794850807
H         4.04594599076297    3.86748093092709   -3.19384303629230
P         9.01763212961345    2.01387668078574    0.29957846309074
C         6.14930828779939    3.12854061044444   -0.10402736912956
C        10.84499040432164    1.93351104381636    0.55367236526736
H        11.10975389029039    2.46735761745950    1.46373004870831
H        11.18179020756868    0.90155593073067    0.63340362344404
H        11.34969315384607    2.41092967886656   -0.28341726853885
C         8.47290016063605    0.93509096365904    1.68685915546319
H         8.63306744678511    1.44908540523407    2.63245589038169
H         7.40846531230000    0.73526638788644    1.58288145213278
H         9.02326382668516   -0.00437584519115    1.68942315603537
C         8.85488389737120    0.82888030628202   -1.09704714409317
H         7.79978048750781    0.63191791830480   -1.27361932786423
H         9.27560059716050    1.26845713184368   -1.99897171094955
H         9.36991493570907   -0.10460903640942   -0.87617710216603
B         4.72836166300331    2.43283850448483    0.45232987538548
H         4.73892201143826    1.39609703911006    1.01615874663725
B         5.16724328618254    2.43743711866341   -1.29004463662855
H         5.44615131522764    1.40112373169351   -1.78186204088947
B         3.55330693769741    2.97694233653357   -0.77616101782433
H         2.60019016342620    2.32652316834376   -1.01813810219361

