91
CSD_code = OLIPIJ | q = 0 | S = 0 | Stoichiometry = C38H40B10P2Pd | MND = 4
Pd        5.08130024274397    5.28233368313953   10.65322575560285
P         4.25197699299366    7.40861485483012   10.99908626099087
P         7.27595291018499    5.71784216067838   10.00923178364125
C         3.64981770740774    3.87173617209917   11.06279378834352
C         4.91990427824694    3.24743394066139   10.61976450672366
C         5.35188012740472    8.63536852953742   11.77623952547420
C         5.80186827391550    8.30140014929142   13.05291946548555
H         5.43700987929901    7.38882893748185   13.51344045026806
C         6.68291800596163    9.12442625125343   13.72480677646851
H         7.02441713482132    8.86111141072603   14.71527293719873
C         7.12812748828344   10.29096376944395   13.12230738914831
H         7.81600510448125   10.93955664567469   13.64411374857153
C         6.69458617652511   10.62183989368869   11.85022746061243
H         7.04454590910046   11.52907571413736   11.38002541015372
C         5.81497902255737    9.79593891597295   11.17204897795696
H         5.49082042277077   10.05466599362024   10.17458137106144
C         2.67140664156431    7.71797394713805   11.86181183768995
C         1.63177200375062    6.84636373076482   11.54914238905762
H         1.81081328467160    6.04288724817222   10.84395734318243
C         0.39266409577162    6.99727745145390   12.13964430826812
H        -0.40782708006173    6.31512424456886   11.89560457280466
C         0.18475432481162    8.01918991197226   13.05309162081252
H        -0.78057012949984    8.13646876696060   13.52281081546218
C         1.21644930143065    8.88757458353955   13.36830446841838
H         1.05444892245908    9.68325303118940   14.08122374839231
C         2.45900013974732    8.74263945907010   12.77549032728615
H         3.26164523228587    9.42194369702384   13.02765337317684
C         3.84702964327570    8.12229289097713    9.37003345221338
C         3.18324296951337    9.33564148983395    9.21976159058659
H         2.88824691450154    9.89765096651755   10.09541373333692
C         2.89594468630935    9.81156920374820    7.95363178820722
H         2.38319154951223   10.75539389815350    7.83756306900804
C         3.25867312171117    9.07890824786310    6.83389331655988
H         3.03048006025895    9.45532586302599    5.84764728881887
C         3.90221541028359    7.86069472382886    6.97821792179427
H         4.17278871762643    7.28391182105987    6.10581679741579
C         4.19224176349552    7.38258925131091    8.24346154232293
H         4.68911739814106    6.41737717457796    8.37083803663987
C         8.21676521233127    4.77438937819462   11.25397840440185
C         7.75908102796466    4.91513781773442   12.56414700185905
H         6.93143759090754    5.59621206512696   12.76079963217128
C         8.34662155050731    4.20236540879234   13.59047186393405
H         7.98880782210597    4.31314564625144   14.60353986340609
C         9.38633402324186    3.32801642454096   13.31238692059409
H         9.83953069513619    2.75864870032998   14.11006282743515
C         9.83451326515907    3.17454741362030   12.01164428351972
H        10.63696023221342    2.48442350067963   11.79570415478215
C         9.25440781263767    3.89418787530771   10.98035264118810
H         9.59988937363764    3.75997593511001    9.96537382997674
C         7.91010701434887    5.08826037213889    8.42001185256296
C         7.07143640175478    4.27703856556677    7.66470048682947
H         6.07449082646173    4.05708356786171    8.03105708300635
C         7.50633917993236    3.75052422866954    6.46145008041640
H         6.85125574007645    3.11743726921388    5.88175753849915
C         8.78184817957558    4.03778703391350    6.00529906932390
H         9.12572535126554    3.62835931393900    5.06693587224833
C         9.61946876712735    4.85402149482387    6.75053318867259
H        10.61352409732317    5.07849256547256    6.39156292218286
C         9.18872562223229    5.38093206508100    7.95384514896322
H         9.83893664467008    6.02177170012637    8.53364411321586
C         8.10278715730926    7.34788428214906   10.04397762004024
C         8.95308267311122    7.76126715256383   11.06143010810766
H         9.18021897338487    7.09359413941315   11.88050621210674
C         9.52014345471219    9.02270064791073   11.01986791663093
H        10.18755484227134    9.33487507399409   11.80988510136803
C         9.24178492710764    9.88022566196714    9.96966083603209
H         9.69551483157516   10.85973192803272    9.93648969727353
C         8.37670008570016    9.48130450126934    8.96267034070310
H         8.14935567415855   10.15124764644379    8.14605293135613
C         7.80372714614474    8.22621721312749    9.00457100264012
H         7.12247317442760    7.90983691549257    8.22416933105574
B         4.56348660174877    3.09786117788580   12.32307603792753
H         5.14923434986039    3.79022132338611   13.08785096538215
B         2.82067901294974    3.00231052301125   12.24870459581793
H         2.16897168323580    3.56266801875604   13.05692926020054
B         2.25972117009595    3.04989834690156   10.55232430714849
H         1.26010584985442    3.63189955435878   10.31793598765316
B         3.61606610683559    3.18980949540941    9.46252270504541
H         3.64201617937023    3.94079337098349    8.54023678077245
B         5.28810785868913    1.80059678627858   11.39881976123327
H         6.41282987821806    1.49953279552729   11.59434407291748
B         3.84731360688008    1.52239787063697   12.46145338787652
H         3.90337272623200    0.92002801169737   13.47310576940312
B         2.41907912446706    1.48704464112115   11.39376109653673
H         1.46145285444810    0.86757346139084   11.69161722211615
B         2.92836722148565    1.60807648193532    9.68811405161503
H         2.35941212359784    1.06643512949053    8.80932002587786
B         4.72113270550598    1.85171179483265    9.69713521917975
H         5.49929183664234    1.57136710954462    8.85497784700716
B         3.95587998156937    0.73972215456262   10.86200791302768
H         4.11309110962214   -0.42508017758948   10.77152416768293

