59
CSD_code = OLIQOQ | q = 0 | S = 0 | Stoichiometry = C14H32B10NiP2 | MND = 4
Ni        5.21711651133808    0.10649702413458    6.77852914386872
P         3.95904573158207    1.34460754050813    8.10967771350956
P         6.91342046917070    1.27491541156860    6.04840832124831
C         4.02442586679274   -1.36297989458578    6.45333277253058
C         5.08385620622847   -1.29545564308167    5.43825575608540
C         6.41097085177183   -1.92778146825859    7.77505497904218
C         5.97833424230144   -1.31213438606629    8.96102486148640
H         4.92334886329288   -1.32480803537810    9.20744405205565
C         6.87657367395876   -0.78584635002035    9.87647747361396
H         6.51248777334685   -0.32222315344515   10.78380992116347
C         8.23796412866271   -0.86658866568392    9.64308400975460
H         8.93997657695823   -0.45511649114189   10.35484204476062
C         8.69331141048318   -1.49920823230121    8.49739119369817
H         9.75660460250336   -1.58857115276191    8.31904355408274
C         7.79475491526652   -2.01867105768920    7.58358772242996
H         8.16761426700207   -2.52340596696573    6.70356007106816
C         4.63846615899121    2.72081751547971    9.13516667693824
H         3.84586683284272    3.23516851060783    9.67560834336934
H         5.15400923428880    3.43150202074788    8.49256485697876
H         5.35657155485247    2.31807434328604    9.84605359928515
C         2.72444514121407    2.28969520046346    7.12222151530083
H         2.13302939644581    2.94480230209231    7.75984858668557
H         2.06752826068629    1.58596186348464    6.61553203432542
H         3.23445552707370    2.88481123456266    6.36771630797714
C         2.81602710890509    0.59992893446849    9.34727141323979
H         2.10807289512537    1.34421778946535    9.70880437862987
H         3.38418275271047    0.21214671225967   10.18993844490441
H         2.27202348990634   -0.22184337217643    8.88535101073445
C         8.07985414579015    0.47757063511240    4.87238463863912
H         8.83324896868380    1.18555291065918    4.52912233044474
H         7.52396293783290    0.09286653924154    4.01974901727558
H         8.56795030731964   -0.35799941453120    5.36855395983425
C         6.46861821508869    2.76495667728679    5.05943282094913
H         7.36041585342424    3.26171577158045    4.68073965475652
H         5.90536979959197    3.46136528266301    5.67738013728732
H         5.84172224646742    2.46247661328369    4.22286297910575
C         8.12864236682829    2.02162590716734    7.21262676302936
H         8.90035741335375    2.56785269119653    6.67267194570473
H         8.58735958702569    1.22759307190336    7.79775539725449
H         7.61840525718749    2.69652220904096    7.89573941426317
B         5.36457732940698   -2.46771845440471    6.69937551761832
B         3.70337184664172   -2.91370044148030    7.02835310153933
H         3.34291321839194   -3.09726259395175    8.13564089414857
B         2.58260849966822   -2.03551129139200    5.92667357012805
H         1.54748081695694   -1.68597296697397    6.37181087852315
B         3.47069076762981   -0.98799299912313    4.84353788786889
H         3.18248284122201    0.13158278901492    4.60978212778612
B         5.75595973844460   -2.79058579843809    5.02513130048486
H         6.87839296694753   -2.88142778352813    4.67803101834552
B         4.79607151298498   -3.95898835717419    6.02233457928383
H         5.21396881960618   -4.99682913067952    6.38990382423400
B         3.08526128026761   -3.71231095316401    5.56542731863534
H         2.31039651249491   -4.59642328611007    5.64668302161917
B         2.96372807322212   -2.53092899907757    4.22833388244901
H         2.14721853466370   -2.61100115397114    3.38232462264724
B         4.64155981871777   -1.91013712539114    3.93414780808541
H         5.09010916070905   -1.46975228330952    2.93668683591862
B         4.36277333573623   -3.63459568393233    4.31796649749256
H         4.51884338398717   -4.46245491510637    3.49403549590101

