101
CSD_code = OLIQUW | q = 0 | S = 0 | Stoichiometry = C44H44B10NiP2 | MND = 4
Ni        6.44037713850446    3.79232565908730   11.20185004927517
P         5.80328459820011    5.89349341680507   11.07066091841880
P         8.53708833410226    3.67257784709726   11.87277158730174
C         4.92379016586599    2.78223620453419   10.51571857977702
C         6.11460912948674    1.94603552047303   10.71369370634568
C         5.03956752872114    2.36616380747906   13.34295826903608
C         4.66373615376606    3.68770501644957   13.60514841379349
H         4.22274802988647    4.28640406102343   12.81547466506782
C         4.75660819343030    4.23386659161944   14.87455977615680
H         4.45199725391789    5.25861128069652   15.04181214338912
C         5.20953623142973    3.46265558172542   15.92977456214668
H         5.27024661709844    3.88106398629789   16.92463871981075
C         5.56264080402387    2.14238748067345   15.70230461047214
H         5.89200496625252    1.52355115931036   16.52491949130073
C         5.48647231773102    1.60974752399771   14.42975398545368
H         5.76710771038558    0.57890899098880   14.26985848337643
C         4.06217636798177    6.38735109857646   11.33615160145929
C         3.11986739402867    5.89896577389717   10.43427164886552
H         3.45026302448522    5.29384035141672    9.60152106018665
C         1.77846583829560    6.17968405363499   10.60431563448613
H         1.05518048685340    5.79612408966018    9.90040248098986
C         1.36310705548025    6.94407635166070   11.68361463783045
H         0.31428327363337    7.16068911182186   11.82169382249798
C         2.29430847366746    7.42475685852888   12.58839271014375
H         1.97220534967629    8.01730004350287   13.43248852968458
C         3.63985145349726    7.14677121741495   12.42033674336068
H         4.36169071322313    7.52217152681780   13.13192431755263
C         6.08894326448130    6.62017549514242    9.41785586344752
C         5.39964167418772    7.72773078119257    8.93465945085583
H         4.63287224547368    8.19235749935761    9.53901314464872
C         5.68395893464396    8.22507767927179    7.67558769871625
H         5.14550042668167    9.08540885944140    7.30530818913755
C         6.65205667130493    7.62344883807869    6.88742479963105
H         6.86894063366514    8.01651924635163    5.90529444937831
C         7.33385211448297    6.51306790508223    7.35650239542481
H         8.08278903907596    6.03536209601349    6.74212259870353
C         7.04857638001373    6.01508656909984    8.61407288078613
H         7.56580652921181    5.13664555352485    8.98519600688375
C         6.65323637517819    7.09019349426182   12.16737148063989
C         6.98034278819695    8.39181462582943   11.81169772197921
H         6.72544268882544    8.76789197209474   10.83165153633729
C         7.64577976847691    9.20717319403665   12.71019039451181
H         7.90086968772973   10.21832401660411   12.42751702988665
C         7.98836359702304    8.73429678689972   13.96565150979713
H         8.51275393766096    9.37414420472940   14.65977903033937
C         7.66141117835563    7.43804770781914   14.32791608742822
H         7.92848470381025    7.06493583689746   15.30606025227949
C         7.00175017400562    6.62153492812964   13.43024399837627
H         6.74599215864749    5.60293355624050   13.69669910882380
C         9.58153215754270    5.12687778627073   12.30358616435220
C         9.52490899798062    6.20384931070555   11.42473322492020
H         8.86078780337285    6.15744985633238   10.57208059224939
C        10.29732225169115    7.33032658765330   11.62816139632134
H        10.23603127409383    8.15732410496780   10.93615650151946
C        11.14416262867672    7.39683422612736   12.72142158859245
H        11.74327889155113    8.27889962773023   12.89201422530216
C        11.22150994448108    6.32468026060758   13.59278108139093
H        11.88859800322286    6.36593524618015   14.44189938585264
C        10.45228578222772    5.19332397396264   13.38420529718168
H        10.53480064800896    4.36563042537999   14.07312782372863
C         9.77704576913865    2.91685562672691   10.74986430030777
C        11.06753896939738    2.63764796654040   11.19063270467686
H        11.34230934290700    2.84257077253991   12.21536722439226
C        11.99381170696446    2.09133139319350   10.32385000626232
H        12.99255510229468    1.87334346189781   10.67328044698618
C        11.64691105917085    1.82459405516674    9.00776165199176
H        12.37479203999856    1.39708309504391    8.33419172379928
C        10.36895990584887    2.10868007727733    8.56100558093304
H        10.09149916794772    1.90184555795429    7.53801739495799
C         9.43980132041562    2.65527943551133    9.42956925642882
H         8.43786408103188    2.86457724484855    9.08522592004912
C         8.71927784189597    2.60333142831811   13.33856342427444
C         8.50320609856215    3.11168071204730   14.61547963244053
H         8.24463462449838    4.15359857350747   14.74218712187463
C         8.62451172413878    2.29280266680584   15.72249845875882
H         8.48133470173949    2.70380644319227   16.71102295798989
C         8.92270405127785    0.94987697242801   15.56406178573865
H         9.01716229584131    0.31056956529123   16.42935666612517
C         9.08464019781560    0.42577518645748   14.29251671619689
H         9.29389327629249   -0.62599551994855   14.16350840182067
C         8.98444634805313    1.24633395485425   13.18452837503828
H         9.11234310949695    0.83483338012586   12.19352698251840
B         4.85657755486588    1.71659473206549   11.90899631821997
B         3.46200749800779    2.02429019343579   10.89982936062409
H         2.55084261767283    2.63454703786319   11.33095134996691
B         3.94716033211862    2.32190180420646    9.20853491103711
H         3.33327967872073    3.11300000499232    8.58697862772252
B         5.67575560050120    2.24525764584812    9.03562222241700
H         6.29081750209106    3.03981226908015    8.41672951434275
B         5.79624440029789    0.38620667998496   11.27742974616954
H         6.56563419494309   -0.17911593222385   11.96745124809447
B         3.98262047358286    0.33225541418079   11.34624068001076
H         3.38476246632277   -0.34692302932896   12.10000453372970
B         3.40008963879700    0.70016035883550    9.70635979189981
H         2.36532461237624    0.28034029909158    9.33178552522108
B         4.77731197739799    0.83641738677268    8.58169880402918
H         4.72185515220918    0.49618869171872    7.45537183401821
B         6.28573085414937    0.70293985969496    9.58494852952208
H         7.35107812083504    0.32870788277903    9.24595433280387
B         4.85871818501350   -0.31442589110172    9.93562377761188
H         4.88574844773766   -1.47384431489640    9.72917810137169

