54
CSD_code = OLIVAH | q = 0 | S = 0 | Stoichiometry = C22H27MnO3Si | MND = 8
Mn       11.90419708495435    3.63096578375311   10.52619682569888
Si        9.23758120552356    0.12472984061903   12.93269097402223
O        10.91790964904855    6.28631150202948    9.77706106015164
O        14.66097115680931    3.79181746745158    9.52492318362488
O        12.77867502377688    4.21059524709928   13.26757321086490
C        10.71193658356708    2.93525773829824    8.66047278103502
C        11.55139042721042    1.92936151718002    9.14673067666472
C        11.46171726831591    1.56325158909318   10.52374291172685
H        11.99284036377500    0.68260617319060   10.87316674909481
C        10.49099000591359    2.16478103516492   11.37845112789415
C         9.71508772444640    3.21226856285307   10.85368529273162
C         9.38396894503534    3.15371503559595    9.36298569602690
H         8.96808291126234    4.12128110194069    9.05564929816038
C        10.75595935361009    3.34983974423368    7.21441127259147
H        11.77600530474628    3.45092513869705    6.85033290506877
H        10.24813073620417    4.30252070264709    7.07470586360184
H        10.24230637435747    2.60411468867883    6.60118627805375
C         8.71027363617764    3.95020733219444   11.70206060436229
H         7.81837969109520    3.33959186633186   11.85256101809264
H         8.40935718230583    4.87416745310037   11.21008039818126
H         9.11903527136328    4.21149504840373   12.67626336219727
C        12.54482363259104    1.22412601079022    8.25760625379494
H        12.00769164045432    0.66426958227893    7.48921940998298
H        13.15492559926613    0.53029354865265    8.83292703395546
H        13.21045125697646    1.92057436187219    7.75059159329878
C        10.38627955041013    1.67074138335894   12.78572299637658
H        10.01429529649597    2.44837181585881   13.45022896084816
H        11.37411877724172    1.38581262032992   13.15372594525999
C         9.34168222258908   -0.44058423390187   14.74972332510979
H         9.00915671841480    0.33795001871618   15.42947684295436
H        10.35591575913618   -0.70756387173323   15.03052097589994
H         8.71597352520631   -1.31089933864095   14.91972830204389
C         7.43441548654888    0.54883626152523   12.48794706192852
H         7.33820319990260    0.88954627078863   11.46165874873072
H         7.03156023242130    1.32007892478882   13.13799162737941
H         6.80209356745270   -0.32736469618038   12.59655540876711
C         9.86008063727981   -1.26641243016236   11.78602545810296
H         9.26789945280459   -2.16641366409250   11.92248208206903
H        10.89497378786947   -1.52666766391203   11.99024844618322
H         9.78482552237113   -0.98578704203733   10.74001626994598
C        11.35157771435483    5.26621309869729   10.08249837905942
C        13.58351581313438    3.73688950812605    9.93129556218397
C        12.45566718657117    3.99632287231250   12.18218560545539
C         8.32834117521242    2.10264165892156    9.07088684792071
C         8.64443816516181    0.78071614968421    8.78633705516727
H         9.67764241521370    0.47423856366445    8.71361649728792
C         7.64724486554432   -0.15663548486046    8.57898883717964
H         7.91312923795145   -1.17999353762006    8.35652837865934
C         6.31614718072568    0.21240571945291    8.65477537326926
H         5.53900877149809   -0.52004023220503    8.49582419850108
C         5.98827052040115    1.52936350244265    8.92954187383515
H         4.95212378289321    1.82968643781034    8.98423527237058
C         6.98629353607891    2.46484643354440    9.13225448871373
H         6.72093787032800    3.49203288317228    9.33960339791800

