108
CSD_code = OLIWAJ | q = 0 | S = 0 | Stoichiometry = C50H50BCuN4P2 | MND = 4
Cu        9.68810556121066    2.72312390033759    4.55424894022762
B        11.39237365973071    4.83740558069992    6.12852927281038
C         9.61841202424890    0.82511128700138    1.51458667632643
C         9.21548011209127    1.50746548606957    0.37013841504880
H         9.60356131638349    2.49519671141239    0.16648794666909
C         8.32595285543718    0.92188872413305   -0.51320077571634
H         8.02716329760400    1.45646704099882   -1.40346940981804
C         7.81365269676886   -0.33944719318105   -0.25797562573843
H         7.11213392879859   -0.78911065999164   -0.94489366755830
C         8.20649797031837   -1.02235763500381    0.88207492425566
H         7.81169214734515   -2.00633734895089    1.08940002708272
C         9.10156751257719   -0.44557195707908    1.76179144138640
H         9.41003064447129   -0.98220107507214    2.64709136125528
C        11.75483359644568    0.26015436046434    3.27878120389053
C        12.24759876253431   -0.67418203267746    2.37132705131238
H        11.95863060334803   -0.61970967482352    1.33024217770121
C        13.09878923337967   -1.67255357144043    2.80796398786817
H        13.48310863694111   -2.39643061671017    2.10367444167992
C        13.46206146377406   -1.74604718846362    4.14415904956065
H        14.12894985623469   -2.52774319303099    4.47747400687118
C        12.96839228920163   -0.82188714119082    5.05010052373310
H        13.24828564249153   -0.88099225897609    6.09161150723035
C        12.11362547796976    0.17710847848611    4.61969823720109
H        11.71251442400190    0.90503069832963    5.31371261345820
C        11.69649912070847    2.72019459850499    1.80935600344016
C        12.99034314359566    2.41749340406401    1.40620204592672
H        13.44352152722454    1.47746030762221    1.68628872516789
C        13.70630656051360    3.33145603419280    0.65260978622487
H        14.71395435906901    3.09502238506859    0.34222602553741
C        13.14102338366204    4.54509941180730    0.29908529224056
H        13.70563197118093    5.25248053158570   -0.29019091837163
C        11.85811658518366    4.85923987849260    0.71811764910405
H        11.42294020649792    5.81434104172779    0.46182908700046
C        11.14250605319937    3.95569348412208    1.47986782715544
H        10.15660841848299    4.20369379718442    1.85184842614827
C         7.10362241617956    0.38483484971683    4.54917538308695
C         8.17479093591133   -0.43286797433664    4.89681808700764
H         9.11289803839034    0.02898217929372    5.18249974147129
C         8.04659737521521   -1.80905939543505    4.85647418155396
H         8.88055773805519   -2.43841837553779    5.13351463122137
C         6.85122021995879   -2.37730995314317    4.44678335939212
H         6.74873655818448   -3.45194771072730    4.40810388481033
C         5.78776201304550   -1.56715877046635    4.08151879560935
H         4.85755978660166   -2.01167592666329    3.75809333179570
C         5.90686415746261   -0.19019708040070    4.13559302103659
H         5.07277280368568    0.43905794535527    3.85830574145590
C         6.75408550653047    2.54921365860116    6.34972867621636
C         6.20132705532584    1.59714684975029    7.19817348752473
H         6.06209992348658    0.58105202043662    6.85619917211599
C         5.83549342291650    1.95020864406591    8.48504347272079
H         5.40599173841098    1.20686271094869    9.14128668959740
C         6.02220043420583    3.24609506963292    8.93575808383737
H         5.74052963470366    3.51331518539876    9.94363288233572
C         6.57740829673819    4.19799237032073    8.09523530288489
H         6.73258819323620    5.20785865797470    8.44569726643220
C         6.94676076892996    3.85054781490734    6.81094203690201
H         7.39577721962126    4.58313527271071    6.15414727605894
C         6.08005047008151    2.83958696494914    3.59390628935183
C         6.20285279381747    2.52668773188597    2.24018647523609
H         7.00340196547556    1.87138139623277    1.92189201430630
C         5.31164615788066    3.04317250942332    1.32123745066981
H         5.41056825670022    2.79006762701428    0.27553691841889
C         4.29827479319950    3.89164574162932    1.74172787183067
H         3.60288416224016    4.30129486128188    1.02401458269545
C         4.18270846476536    4.21829089879253    3.08267738615316
H         3.39564078064993    4.88217590855283    3.41025005948966
C         5.07063117478865    3.70019417744932    4.00954078836015
H         4.97612253778303    3.95972652056980    5.05458423195331
C         9.66071346430613    1.94603632046211    7.48600441356018
H         9.23035189452685    0.97823956223496    7.31043392212271
C         9.73964202402896    2.65807042011235    8.67602443573004
H         9.37112627064007    2.37039804470770    9.63948047843712
C        10.39516118534555    3.82496887576134    8.32873519574819
H        10.64987501369250    4.66901648132473    8.93603190493588
C         8.56523887590326    5.47530335526770    3.94899205999780
H         7.91268395756116    5.09572180676802    3.18330989287063
C         8.53707944153816    6.70548147404484    4.59775031336484
H         7.84921905812129    7.51295925841125    4.44775702940934
C         9.59754145411803    6.64421299364874    5.48454606011618
H         9.92569501931292    7.36762604048246    6.20219055271473
C        12.45833504598459    4.13164040617311    5.12028437450681
H        11.98482253306868    3.36672551932441    4.48212547643594
C        13.52819837473023    3.39467184631763    5.93576918390309
H        13.02895584995031    2.58416701202788    6.47404694045629
H        14.26113492037416    2.93321256135143    5.26445742907528
C        14.27219957447741    4.25851532946235    6.95569669600457
H        15.04402679172317    4.83780017999857    6.45343945951237
H        14.79565051118575    3.59564605403149    7.65351202621693
C        13.36700928220617    5.18896768668092    7.76669921554416
H        13.99819934472987    5.92303634668327    8.27973394663302
H        12.87720095214815    4.59204645546391    8.53944059449652
C        12.27642125979224    5.91778790263023    6.96190229347663
H        11.68644218661341    6.48434917539655    7.69669748647771
C        12.87167347844174    6.96319355837462    6.00233065704994
H        12.05143490798472    7.55927320768079    5.59670475251053
H        13.51981018425978    7.64768410875672    6.56088251022905
C        13.66810309453577    6.39794353969292    4.82393513452347
H        14.67754036529073    6.14848969726874    5.14430977380235
H        13.77510936036114    7.18690276329662    4.07140046349016
C        13.02250779292591    5.18249521851943    4.15668193094678
H        13.75448478472851    4.72239473201342    3.48342656217600
H        12.19209610904632    5.52910479259154    3.53555604032958
N        10.23491260967969    2.63864765961984    6.50583345540999
N        10.68820293743063    3.77968960379974    7.02728912249408
N         9.57463156994226    4.74652643173922    4.41445476243007
N        10.20395141761297    5.46239201962262    5.34349685381960
P        10.64123951329325    1.61888968592954    2.80471292646986
P         7.38258675155566    2.18102389644392    4.68215082271801

