27
CSD_code = OLIXAI | q = 0 | S = 0 | Stoichiometry = C6H12Cl2N4NiO2 | MND = 6
Ni        4.56002616806266   -0.00097012044129    7.78195059866742
Cl        6.59518534906520    0.35108557469055    8.48370874847044
N         5.06221909488343    0.54397051009516    6.06288557510283
C         4.45528408893618    1.42457361906684    5.21986083157290
H         3.56789239578919    1.95692785371385    5.50043476387524
N         6.16396055538728    0.56115933387615    4.18025933374468
H         6.85521802091055    0.33704419725455    3.48353217876718
C         5.13442900030686    1.44525356057829    4.03952986821767
H         4.96871391465332    2.00195509442098    3.14105631104829
C         6.08507637771397    0.03748204118306    5.41542753274309
H         6.76452353248953   -0.69097388760857    5.81216166790988
O         4.29314617840209    2.34368963464949    8.62654773260670
H         5.19633455791050    2.22073858414643    8.96007622812053
H         4.36572012958942    2.90555956601051    7.85072032449962
Cl        2.52505069566795   -0.35473739245644    7.07988969191267
N         4.05681408929834   -0.54401153987987    9.50129555070855
C         4.66098994334394   -1.42477046948566   10.34605278476100
H         5.54839585272081   -1.95824232025066   10.06768258134016
C         3.97934231954024   -1.44405343875942   11.52499124470798
N         2.95115639454611   -0.55882789449734   11.38165351334336
H         2.25859333902358   -0.33360070500914   12.07673537905184
C         3.03322503039034   -0.03591168257569   10.14639115388533
H         2.35548289481344    0.69320361929459    9.74795745223321
H         4.14238786686101   -2.00060775500947   12.42403676275397
O         4.83124157961983   -2.34458631952515    6.93618759490273
H         3.92659693762819   -2.22411821917193    6.60551131164456
H         4.76279369256009   -2.90723144433047    7.71206328342777

