64
CSD_code = OLIZEO | q = 0 | S = 0 | Stoichiometry = C30H23AuN5O4P | MND = 2
Au       -1.53426554480647    4.64850243593490    2.55431857132117
N        -2.84333599761477    4.50857643529897    0.86306186784131
N        -3.60001194438824    5.56302479487329    0.90733534794914
N        -3.30411002295348    6.26847395738884    1.94243736462842
C        -3.92111549514836    7.46912175659210    2.13467200702975
C        -4.69211771114121    8.11805247922735    1.15385272509716
H        -4.84231596141340    7.62635551293766    0.20550831079922
C        -5.23320480385223    9.35445858437758    1.40560754638378
H        -5.82867331542784    9.86910905860592    0.66666475815045
C        -5.01022806368189    9.96828207253966    2.63839982327416
C        -4.25412535272316    9.33455113997882    3.62469732929488
H        -4.10396943971402    9.83356721808820    4.57003290326260
C        -3.71668849913154    8.09659480845557    3.37518414024143
H        -3.13158101531158    7.58392714708013    4.12346547701699
N        -5.55745007082858   11.26198106371418    2.89462232114785
O        -6.23260697515934   11.77967805955728    2.02483463189452
O        -5.31454084137648   11.77977893040175    3.96986616958433
C        -3.01498439856783    3.60966895533303   -0.14860903049547
C        -3.98438979263412    3.76837429353114   -1.15404531741568
H        -4.62234923399063    4.63701810596890   -1.12376375189781
C        -4.11027391717283    2.82987265884519   -2.14784499464861
H        -4.84876108528954    2.93439164813156   -2.92806154866905
C        -3.27125110145791    1.71540926477510   -2.15831936649882
C        -2.30504128025362    1.54312546779703   -1.16744384170939
H        -1.67161882872863    0.66994885627904   -1.20142336463858
C        -2.18016504333695    2.48174030784933   -0.17393034717137
H        -1.44105313797757    2.37209405491423    0.60663867750381
N        -3.40140722029492    0.73951169413492   -3.19243015148776
O        -4.25495936341835    0.91743546247733   -4.04092055577957
O        -2.65147641417949   -0.21927812909386   -3.16790965734325
P        -0.07960815158973    4.63862381217987    4.28019590904250
C        -0.20337886574086    6.13191183086559    5.29952934157396
C        -0.42887764910205    7.33073280766242    4.62699164713551
H        -0.51925314812572    7.32320805760778    3.54781246061085
C        -0.54364444580573    8.51067479790478    5.33770145196412
H        -0.72060795765545    9.43886153202370    4.81572878104524
C        -0.44151944055538    8.49582350104949    6.72022908021748
H        -0.53803748419044    9.41578568143423    7.27654546081217
C        -0.22273104592309    7.30286360884849    7.39089120957228
H        -0.14835345035662    7.29444090592491    8.46810597417297
C        -0.10367173664416    6.11774978854211    6.68665020475762
H         0.06096799245497    5.18506693015908    7.20837927603234
C         1.67296440831458    4.54406546150903    3.82839970330912
C         2.63833742440699    5.41730571233173    4.31563436201669
H         2.36228624492118    6.19795590159208    5.01073302279415
C         3.95314650497651    5.27788567547674    3.90584664047246
H         4.70512847245759    5.95450129068293    4.28376493556230
C         4.30560636848320    4.27704910473665    3.01543959463170
H         5.33270485510082    4.17522722344984    2.69927471762189
C         3.34173388092551    3.41012730911969    2.52240968931966
H         3.61675864270454    2.63451531353741    1.82359575368933
C         2.02679717509099    3.54646283594031    2.92190908135673
H         1.25984004946830    2.88322386303859    2.54113642591251
C        -0.30452827275142    3.27913406488106    5.45730257402874
C         0.75255390181938    2.59248728366592    6.04458033893738
H         1.77245060225052    2.85826461677531    5.80310090984025
C         0.48884756892930    1.56906227651530    6.93795745107891
H         1.30811384552411    1.03392653371590    7.39468537680973
C        -0.81871442347213    1.23074537492980    7.24698442207500
H        -1.01707617930685    0.43046452932462    7.94376381041689
C        -1.87344518915966    1.91253273466339    6.65926927443169
H        -2.89191343523657    1.64424308283194    6.89650884420561
C        -1.61852748896583    2.93125855835413    5.76149889174957
H        -2.43037770129621    3.46616990201598    5.28364533815558

