70
CSD_code = OLOGIH | q = 1 | S = 0 | Stoichiometry = C27H36AuN2P4(1+) | MND = 3
Au        5.30347222653684    8.33387957608468    4.46043566034818
C         4.98072884856320    8.35921858766898    7.89169904446812
C         6.29579284126602    8.14165007876789    8.30692136764661
N         4.30592184851999    7.32508194085518    7.18069727557061
N         3.60048655148599    6.12546132193742    5.55084901283877
C         3.52737992577405    6.34097639815371    7.72313078351376
H         3.35837077367563    6.26371383097453    8.77685581929389
C         4.35219009920989    7.19368586193626    5.84974513560495
C         2.90617611275399    9.79868334062290    7.61958451496627
H         2.50183068339116    8.86204281777457    7.22133100885184
C         4.31432021798247    9.56553960849219    8.11506331156271
C         7.01614516244435    6.84633247686746    8.01395283067260
H         6.30633603467466    6.12206582451697    7.60062461751456
C         6.29950809938624   10.37296466097225    9.21561191991392
H         6.81658844498195   11.16283525745908    9.73802834597520
C         5.00052513096739   10.56870827691066    8.78683128169507
H         4.51557865948435   11.51292634645024    8.97484631216467
C         6.94220165031611    9.17359390311741    8.97452159517164
H         7.95865816416187    9.03948779905177    9.30746064877837
C         3.08073678793397    5.58078736666570    6.69061189893302
H         2.45008468085425    4.71660639837617    6.67587267100974
P         5.36735597131217   10.27907102919216    2.91478307179563
P         6.98880184853070    8.71393229913034    2.69328116896312
P         7.32834119571302   10.78636547538378    2.10910466873851
C         3.41100652109699    5.66695644940837    4.21533316271586
C         2.38626106020066    6.22680522936857    3.44916109498097
C         4.28905519719436    4.70957362586649    3.70283373900060
C         4.10140084371287    4.29404746084163    2.39108918645171
H         4.76082086045321    3.55424297467241    1.96677339158238
C         1.46849132267300    7.29328704430458    3.99945167496299
H         1.75142738929125    7.51892574592855    5.03290050815725
C         5.43305566556993    4.16017040483444    4.52193386208014
H         5.38043998194894    4.56473893005724    5.53793961167873
C         7.61134644955331    6.23589849303994    9.28394022278944
H         8.40346889930736    6.85929428613758    9.68738086134872
H         8.03104681901094    5.25790226768898    9.06212034698882
H         6.84494632487647    6.11725212486356   10.04638914525230
C         8.10467573238427    7.08857151671122    6.96442410683997
H         7.66982172092636    7.48663544464367    6.04606162788920
H         8.61286138461499    6.15673269400138    6.73043424302838
H         8.84009396108754    7.79932443161862    7.33102362769196
C         1.98446727915138   10.25370430406148    8.75262529952039
H         2.01925371227139    9.54846625169700    9.57984174314122
H         0.95984391764933   10.31424300979014    8.39434885781298
H         2.27086815741840   11.23290827484353    9.12426431280847
C         2.91946626933173   10.82546786431102    6.48363554400802
H         1.91192236693924   10.97650862949447    6.10468786380346
H         3.55102915946827   10.48210770959746    5.66232694275127
H         3.30214284032976   11.78048119036638    6.83282643623737
P         5.93083576033686    9.50144278172319    0.96350623817119
C         3.08067951990927    4.81829427349305    1.62124257266801
H         2.94649422157146    4.48008968678903    0.60545975163237
C         0.01781143029821    6.80580824300746    4.00703417135327
H        -0.33460485716233    6.61472460195993    2.99767510338297
H        -0.62519130754830    7.55807363511186    4.45675372877250
H        -0.07311875580415    5.88646380517393    4.58107920703839
C         2.23523121333908    5.77853877888761    2.14330857137509
H         1.44850228502978    6.18460792808552    1.52796587042331
C         1.60284270428958    8.58472000417074    3.18897231951434
H         2.63915577611055    8.93023713421854    3.18457532718570
H         0.98440183930519    9.36460432048474    3.62552397832322
H         1.28838051942782    8.43507670015736    2.16016032683816
C         5.35789322552437    2.63566363617695    4.62431532842332
H         5.48545711260174    2.16996377422790    3.65172817761377
H         4.39675305865755    2.32692723989539    5.02894951813692
H         6.14217450081940    2.26925666192054    5.28178791242312
C         6.76629987991894    4.60136705509134    3.91207550462295
H         6.88991989313315    4.19132410691471    2.91373284644920
H         7.59160572036804    4.25580077415028    4.52914231805237
H         6.81643046361214    5.68955802284381    3.84511984808747

