53
CSD_code = OLOGON | q = 1 | S = 0 | Stoichiometry = C20H27CuP5(1+) | MND = 5
Cu        6.22788288324311    3.67990162466629    4.21874159030260
P         7.22640601398443    3.82887128195724    6.28710570948171
P         7.30767252456750    4.43889692046828    2.17208232298798
P         5.51475264785255    5.55771092659663    2.88200784215813
P         6.07898729314376    5.57745158743800    0.77697822380257
P         7.32404676360962    6.61086592704630    2.29327733858591
C         9.10871060956519    4.05048312331457    6.29248443301890
C         6.91020988049844    0.75420860522507    3.81691654689905
H         7.78654928545571    0.18392392928233    4.08697501633106
C         6.97311596232007    2.18802160517999    7.04885238194037
C         7.16156425413128    0.64385790104633    8.89891042079058
H         7.42304754118272    0.45710087708447    9.92901902705024
C         4.80785038291616    4.74519968497229    7.02497267936190
H         4.55812065748355    3.72855928175273    7.32919492170420
H         4.61939862014282    4.85520650524542    5.95236565413759
H         4.14664700910995    5.42689992027988    7.55554981027304
C         9.42880406506823    5.24115121763012    5.38678876992682
H         9.17435012719197    6.18899514756959    5.85047772466469
H         8.88683472104600    5.15672882025809    4.44059839396224
H        10.49331727716890    5.25478116129979    5.16209747547868
C         6.49789498642283    1.14107282622629    6.24302319459111
C         6.55823780762728    0.89917758172043    2.48310941641251
H         7.15949545534044    0.43286603130695    1.71826256625060
C         6.46741928563298    5.01999182127303    8.86192165209282
H         5.93605415237299    5.85992061822374    9.30740570544728
H         7.51265037039662    5.10555883124557    9.14388108494241
H         6.05251949821891    4.10864560337237    9.28399946730917
C         6.36814630911452   -0.13520624174412    6.78065896906802
H         6.00362432455000   -0.93214658827578    6.14949942841616
C         6.13884816230847    1.32951336855155    4.82104517363720
C         4.98157865084389    2.03871159091226    4.46875527089959
H         4.30753235510246    2.36963111746290    5.24565825923510
C         6.68793795015641   -0.38488763470570    8.10244886196188
H         6.57396436077805   -1.37872220723493    8.50573672853373
C         9.77945478457029    4.23321594347911    7.64744644277825
H        10.85398720861333    4.32513947092552    7.49687758727879
H         9.61120673981778    3.37925020812019    8.29724881731650
H         9.43795916969071    5.13920369905792    8.14162476033162
C         4.64266599648145    2.20141969309951    3.12270889801703
H         3.72208529565704    2.70548093001840    2.85791782099182
C         5.43330886834077    1.62696049985128    2.13115784653128
H         5.15559608472790    1.73078824898841    1.09307020008525
C         6.27028594266528    5.06937084240160    7.35080252332648
C         7.31040431651007    1.91437227336758    8.37363666688263
H         7.69853311611531    2.69722407412664    9.00313637827038
C         9.61409490899845    2.77538851599076    5.60902710244327
H         9.09222023393048    2.62176404539557    4.65993284308190
H         9.46230321697124    1.89966236716877    6.23727507662005
H        10.67800812036523    2.86169330710619    5.39950247977180
C         6.59920684145472    6.46416236909348    6.81727895778403
H         5.84828121242734    7.17548044627696    7.15530543124294
H         6.60104932961153    6.46969726922387    5.72370880418785
H         7.56597642448285    6.80678302964906    7.17603930140120

