52
CSD_code = OLOHIH | q = 0 | S = 0 | Stoichiometry = C25H20ClN2PPdS2 | MND = 4
Pd       -0.77465637815030    6.82354646671353    3.97462607184624
Cl       -2.50849842874723    7.97469853968564    2.98303995674010
P         1.13955262319279    6.73126185436827    2.18521907087848
S        -0.43127653522854    5.55623562776992    1.91889302380617
S        -1.68482172874197    7.18417583314934    6.05931321093930
N        -1.45553030433729    5.29434294774466    7.94385048790530
H        -0.98964850272340    4.43446067526619    8.21428697255523
N         2.28027518099353    6.18048842184295    3.30378426908504
H         3.16839868789442    5.88201856528680    2.91722754539837
C         0.29728293341701    5.37979901963312    6.29225509310688
C         0.62460879646106    5.84143445990780    5.00461146927828
C         1.90801785889739    5.57777226325891    4.51718751970953
C         2.81016272693660    4.81098229362290    5.23816470184239
H         3.79526696326197    4.61242537449183    4.83912857414078
C         2.44634057934156    4.31226031009266    6.48253824752470
H         3.14991659067644    3.71277475499366    7.04021716640776
C         1.21071120789079    4.60041382758011    7.01940181627016
H         0.97718392855980    4.24552843782546    8.01382117732998
C         0.78649142477437    8.49955942012266    2.52445381073060
C         0.17467008573739    9.22436678067337    1.50906586306619
H         0.05384391392236    8.77131596592438    0.53286217968074
C        -0.29822034512041   10.49956941343752    1.76604057021556
H        -0.78802049923609   11.05733087738209    0.98284136903647
C        -0.17343445186147   11.04044785797663    3.03408406879519
H        -0.56980770346040   12.02306968003342    3.24068092477971
C         0.44577304852134   10.32238740698176    4.04827509390113
H         0.54405903288970   10.75357419863334    5.03389488352216
C         0.92674284897280    9.04596998160143    3.80687137519870
H         1.45805495245563    8.49511735131336    4.58380993119654
C         2.16135930901080    6.77538796463324    0.68410950409648
C         3.22707249268562    7.66675698750623    0.63112341949623
H         3.41628414107683    8.31949328926226    1.47356056950632
C         4.02446551185830    7.71201194816594   -0.49712948465908
H         4.85356637494903    8.40212056485262   -0.54456571450163
C         3.75498270358321    6.87334730989802   -1.56825774716551
H         4.37725321191975    6.91275241694958   -2.44989159909274
C         2.68868166175340    5.99006440973518   -1.51523572697127
H         2.47860344322360    5.34363068438551   -2.35404938384871
C         1.88699739499307    5.94054020862928   -0.38826807877895
H         1.04354089945858    5.26655036944983   -0.32639820901216
C        -0.96113709895732    5.86790440161446    6.83426732352221
C        -2.59267042597350    5.55980171856422    8.70881111564650
C        -3.25012659477352    6.78615027613727    8.72627363368281
H        -2.89322843560429    7.60344868100794    8.12473528166200
C        -4.36412574384051    6.95542074697172    9.52905493164848
H        -4.86898927058947    7.90926354868367    9.53138356279799
C        -4.83046842103448    5.92294478769671   10.32385208287244
H        -5.70225730145920    6.06355746232901   10.94400519616591
C        -4.16623307742766    4.70661387868648   10.32347857942524
H        -4.51582697073735    3.89577824592001   10.94474280723874
C        -3.05417600044675    4.52603555134476    9.52668642152703
H        -2.53900631091196    3.57489594026747    9.52676506986733

