95
CSD_code = OLOHUU | q = 0 | S = 0 | Stoichiometry = C49H38Cl3NOOsP2 | MND = 6
Os       -9.10594848092145   10.09329028388056   13.33171119719940
P        -7.45552776488367    9.94486711846075   15.02705783452315
Cl       -7.31727599414412   10.69717146509676   11.95169202419028
N        -9.31677914781974   12.06917419173609   13.45536183615033
H        -8.77540940016933   12.49408299250849   12.69462565347328
O       -10.93364321184528   15.58695302638048   17.19543896934198
C       -10.45146451017487   10.24390409866384   14.59599434301002
C       -11.15708808233943   11.12694500978244   15.32223588189085
C        -9.74196160907982   14.37131445873586   13.99642128861441
C       -12.46876523073466    9.91685412439777   17.76299145320455
C       -13.51561657114407   10.07941174958481   18.66023451783312
H       -14.46695033644932   10.46720160078765   18.32483859250117
C        -9.18423929692060   14.88305953615187   12.81925794134722
H        -8.93430524363442   14.22583578173678   11.99893340839295
C       -11.23501019661820    9.43633592718561   18.19571310890170
H       -10.42953885302853    9.32893287940887   17.48002083082613
C        -5.72933915910435    9.59681236841243   14.57886507587154
C       -14.17340288402852   11.04755589566002   15.57393077154218
C       -10.72580809348671   14.81526439648833   16.26024160879998
C       -10.10153378515440   15.27374340459951   15.00926890813931
C       -14.24058767578297   12.30381410636050   14.98243470018738
H       -13.33534703882485   12.86468692364844   14.79936525330870
C       -12.33440209150214    7.49608980114538   15.77100363516160
H       -12.24024817667861    7.45714994693172   16.84761641934635
C        -9.86716179685172   16.63779634234622   14.84453346326742
H       -10.14663156177064   17.29660701984999   15.65337921755425
C       -15.33071569508877   10.29887851390705   15.77759887213112
H       -15.25786152879139    9.30668654663840   16.20392985787068
C        -9.92461936382943   12.94146643333281   14.21412585477696
C        -3.14620690406495    8.91191208444978   13.84930417706502
H        -2.13885112385517    8.65339844824415   13.55737358066584
C       -16.62772581088761   12.08962858066546   14.85051449783933
H       -17.58683706667422   12.49827614735694   14.57086304437093
C        -9.30354666990552   17.12215979321778   13.68393264341619
H        -9.12783025369166   18.18028458453220   13.56161240090330
C        -8.97333723883989   16.23736176731074   12.66469902686056
H        -8.54991287198456   16.60922002905268   11.74353129650562
C       -11.11725305547155   13.41639075019215   16.31453953240721
C       -11.05423476913279    9.10504696427521   19.52478307113967
H       -10.09892110366417    8.72704172462379   19.85729641632776
C       -12.20980998321375    6.34134775472125   15.01709682547481
H       -12.01908226789772    5.39971492642668   15.51053143408351
C       -16.55671511151213   10.82738052924340   15.42124783677288
H       -17.45731439788408   10.25375542137947   15.58100438768764
C        -4.65774458327951   10.36334747675316   15.02272638900855
H        -4.82518702695294   11.23057035568617   15.64642607244097
C       -12.10050059371870    9.26121350788120   20.42205732679226
H       -11.96043773517242    9.00626050138483   21.46153053803185
C        -5.50329844805646    8.47804235827630   13.78083452336163
H        -6.34476626053567    7.88987382861684   13.43787936491877
C       -11.86566954895646   12.99610177196082   17.53983054837409
H       -12.85047013153735   12.58799248366848   17.30181629649469
H       -12.00032654109828   13.87266751276128   18.17153151817000
H       -11.29887549526096   12.24823295487734   18.09532153315684
C       -13.32387270639452    9.74881284484992   19.99107367716874
H       -14.13284579059244    9.87497739486363   20.69464530105523
C       -12.56077619615521    8.70677245733990   15.12787783876475
C        -3.36985324715123   10.01614636448831   14.65432463889605
H        -2.53793012348201   10.61611610116891   14.99438000805410
C       -12.30736965019827    6.39346964182544   13.63671372287543
H       -12.17735426523335    5.49366547272289   13.05539046016800
C       -15.47326502659615   12.82176803591237   14.62549797525790
H       -15.53049783401408   13.79709992751121   14.16710919893650
C       -12.69937411585000    8.75494072003743   13.73972087167283
H       -12.87735164276506    9.69881456803210   13.24311489775957
C       -12.56207255263372    7.59825868364135   12.99868193425244
H       -12.62727105066633    7.64829652860119   11.92360564473716
C        -4.21375420375998    8.14207083216391   13.41539235087229
H        -4.04117992610281    7.28216270356517   12.78533239497581
C       -10.76269263248211   12.53394333506940   15.33147422509290
C        -7.41993455691600   11.54208080947807   15.89325774070908
C        -6.92921832589102   12.64175543651456   15.18811339173603
H        -6.49768842452905   12.48717519278414   14.20699834178113
C        -7.00963611193921   13.90934804576540   15.73142018733236
H        -6.62905694077067   14.75744549121311   15.18126272988240
C        -7.59380613682032   14.09471846342084   16.97548084031182
H        -7.67028908597927   15.08595534761997   17.39535348303103
C        -8.09447627447853   13.00872455010374   17.67275833132155
H        -8.55832510542740   13.15723250060714   18.63661072228533
C        -8.01589510680625   11.73595333828573   17.13424239802986
H        -8.41449187615309   10.89133422811684   17.67888222437313
C        -7.68855043077717    8.72986562061784   16.36746617703854
C        -6.77821841512403    8.70383305951358   17.42202632807624
H        -5.95498570363473    9.40518601643583   17.43482636203085
C        -6.92943778986583    7.78617371021741   18.44394052748639
H        -6.22322462207041    7.76964016947039   19.26124669940146
C        -7.98148252978507    6.88259027276128   18.41625649423466
H        -8.09252100375912    6.16106863888875   19.21270631357020
C        -8.88027664865072    6.89819728656468   17.36342662702634
H        -9.69337316286980    6.18799465778479   17.33475092470405
C        -8.73839224717323    7.82038770112738   16.33915354641686
H        -9.42668848770956    7.82761535222387   15.50485110946955
Cl       -8.84135111293655    7.84878791132411   12.95432917303762
P       -12.58265432388580   10.29451660161374   15.99308168472980
Cl      -10.65802683806247   10.16249578439088   11.54331569975007

