99
CSD_code = OLOJUW | q = -1 | S = 0 | Stoichiometry = C42H50CoN2O4(1-) | MND = 6
Co       -3.70396518426072    1.99166330343983   12.41657005331456
O        -2.86210614574268    0.95695355266467   13.71630873833259
O        -4.53164653036956    3.08170507809349   11.13260351431333
C        -1.87851984680727   -2.27352620123748   12.34307660652958
H        -1.99864281955107   -2.81693646318404   11.41767191166357
O        -2.02077670242118    2.48594026535066   11.79218720950693
N        -3.80068969331675    3.35547174252198   13.68633536730277
N        -3.69422843892568    0.64708247566983   11.12304659377148
C        -4.73703046306544    2.42831205110215   10.03861330579180
C        -4.30978550562938    1.07288328841815    9.95618170857695
C        -5.36373792639371    3.00051701231586    8.91568825868417
H        -5.68773917714105    4.02907889879545    8.97568924205616
C        -5.56133805032211    2.25521239494425    7.77590204013984
H        -6.04877943837821    2.70455132385102    6.92003096411415
C        -4.52298540096388    0.34093180380810    8.79182622204226
H        -4.21250100465547   -0.69235171110279    8.72130270352965
C        -5.14602849467161    0.92922568132859    7.70814341525510
H        -5.31268817627340    0.35598979317660    6.80647098686254
C        -2.46306105072276   -0.99638293382055   12.41028879190080
C        -1.61726168947802   -0.78007385461229   14.69450609852111
C        -2.34801145530668   -0.21244362896273   13.59793564961344
C        -1.17940483708053   -2.80961542842804   13.39300235273441
C        -1.06873990564786   -2.03019867734104   14.55787303907991
H        -0.51579319615941   -2.44695060262847   15.38377244517502
C        -3.14623801257511   -0.52069718777795   11.25807516018538
H        -3.17974539478401   -1.21753400957695   10.41960723078527
C        -0.51774090796483   -4.18007897537956   13.35670072211325
C        -1.45772055011105    0.03649033263006   15.97202021606528
C        -1.10217247241245   -5.05943390357435   14.47137309450607
H        -0.64957768978836   -6.05042573422125   14.45227959890735
H        -2.17661318572480   -5.16522426706324   14.33682198795898
H        -0.92548936552896   -4.62235646303438   15.45017257335533
C        -2.84405974150904    0.36465646317359   16.54370940753929
H        -2.74842327431783    0.96885896359342   17.44504289302696
H        -3.37436130349062   -0.55318356419279   16.79347451960784
H        -3.43084307499816    0.91597247349838   15.81633286779361
C         0.99475489041925   -4.01687767080584   13.56560671195881
H         1.21156257936647   -3.56559303283465   14.52982298483437
H         1.40912441502408   -3.37503585520092   12.79106637670319
H         1.49324698950691   -4.98474460742773   13.52030389150961
C        -0.73555164146911   -4.90115822180978   12.02336654558416
H        -0.24752502826639   -5.87509229180090   12.04836520001294
H        -0.31071612597711   -4.33057640122388   11.20106257818846
H        -1.79518055962250   -5.05779646912314   11.83601935820460
C        -0.66672930344463   -0.70007966948479   17.06085499854760
H         0.34694259516472   -0.92132514057690   16.73231017418210
H        -1.16039542088552   -1.62608077761418   17.34954780136136
H        -0.60116338931850   -0.06592768880913   17.94399909632971
O        -5.38922382153172    1.43890005414322   13.02949602247380
C        -7.07819031019730    2.06167031173868   14.57029668309407
H        -7.69874519454938    1.23389146118523   14.25996266863622
C        -6.69463562582956    4.00921360284299   15.93275576940936
H        -7.04016141117044    4.69475544395469   16.69439559830290
C        -5.82636483114587    2.23142771684340   13.94970851530433
C        -5.01000913441386    3.32200933140466   14.36320880511520
C        -7.49630760912870    2.94137542903130   15.54248185799573
H        -8.46391623692207    2.80403638467321   16.00820797590140
C        -5.45758295416881    4.19841965299453   15.34728539466190
H        -4.85161112227473    5.03746483502374   15.66030083531575
C         0.60169448752885    5.32332378815482   13.27309924617652
C        -1.58048345735596    4.25731583681454   13.32469846608920
C         0.09997510098860    3.49599810885619   11.71948081664478
C         0.52520521601472    2.55227351340970   10.60018096585591
C        -0.66008667433263    5.21010275933765   13.79617883512543
H        -0.98966949103989    5.85042725083582   14.60083295755745
C         0.94814921608225    4.44521823970385   12.23119132998365
H         1.94110424177975    4.52885905594956   11.82063104696786
C        -2.85522551441784    4.20284689910541   13.95140296306528
H        -3.01666069046683    4.94239246186807   14.73676246380817
C         1.95546162978606    2.81002883493987   10.10862134118480
H         2.68094687305849    2.65973747054478   10.90581297647605
H         2.06142941847730    3.81820925343779    9.71246716996152
H         2.18841024952791    2.10911846759097    9.30809858040826
C         0.45886936088391    1.10771448444011   11.11551625924749
H         0.74486645156743    0.41051136802094   10.32897575428435
H        -0.54805521152718    0.86951084476570   11.44079834436669
H         1.13329955954357    0.97637043526567   11.96039112136912
C         1.63396429749348    6.32836181276900   13.76458767914557
C        -0.41823494939071    2.72445889109422    9.40152415405383
H        -0.13887557840017    2.04278304130480    8.59907969137862
H        -0.36648351733776    3.74538575755470    9.02599311420253
H        -1.44181787968470    2.51552186444497    9.69467207706771
C         2.04617683134180    7.24620422114133   12.60488441452328
H         2.48523837956071    6.67709557737079   11.79030435147111
H         2.77648766099631    7.98153682055092   12.94128241374530
H         1.17535627298819    7.77222625296853   12.21937018308520
C         1.10138307640823    7.20977797093452   14.89797208496989
H         0.23618861566977    7.78126923155805   14.57044405337455
H         1.87340806053051    7.91202981102594   15.21130103556623
H         0.82257838694210    6.60664392189899   15.75863395432867
C        -1.22151501668876    3.37142376110542   12.26421140511063
C         2.86382992405247    5.57373998058972   14.28987203410973
H         2.57209515402024    4.90452743250594   15.09645678967262
H         3.60817273099848    6.27335303496215   14.66896680690190
H         3.32313172265909    4.97779104397294   13.50621237565566
C        -0.70643248484647    1.33410184353068   15.64271237923263
H         0.27905303421533    1.10790706147940   15.23831170699536
H        -0.58496303696267    1.94078640486198   16.53923963766442
H        -1.25504809335299    1.91025549996168   14.90546368487730

