48
CSD_code = OLOLEG | q = 0 | S = 0 | Stoichiometry = C17H23Cl2N3O2Zn | MND = 5
Zn        1.92744574641229   -0.30410465842836    2.78805319058553
Cl        0.66885172615018   -0.47060348779369    0.93968801146933
Cl        2.77086277607262    1.31226828956612    4.00725341019809
O         5.00895859469151   -2.90284200211636    1.34369559573027
O        -1.20383171124515   -2.43974808702642    4.73856210306455
N         3.85702080347857   -1.05977465344291    1.85895526557542
N         1.93549762139703   -2.42963717901917    3.05891743711838
N         0.16445993618854   -0.79209591787490    4.11178705944909
C         5.05852772251133   -0.54214091355598    1.24594210510574
H         5.55807259787166    0.10055657055862    1.97853731059278
C         5.87532332473538   -1.83081985280721    0.95707060980520
H         6.12281283576672   -1.94934296093155   -0.10007348404541
H         6.78978007272391   -1.89915901617199    1.55187212264910
C         3.91315378547827   -2.33018019183968    1.85098272247036
C         2.81897974493953   -3.13971158724704    2.37653632575350
C         2.65635858064775   -4.50563925660091    2.16120907719199
H         3.39579494288018   -5.05701175976274    1.60323749977692
C         1.51725378402467   -5.11311068485726    2.67007428667518
H         1.35495190749732   -6.17003197636490    2.52060767094717
C         0.57640191252299   -4.35435272354626    3.35116246829467
H        -0.33399459783724   -4.78495527669928    3.73592309062505
C         0.83077374969786   -2.99570674313376    3.51897291935448
C        -0.07710592936433   -2.04020276374250    4.14287811694541
C        -1.86238980480669   -1.24879791371817    5.18761384709596
H        -2.01200514103077   -1.32893430280371    6.26613470972250
H        -2.83283912990982   -1.18592429782986    4.69067679125215
C        -0.90534529425501   -0.09491241527228    4.78422799581082
H        -1.37633599104732    0.57772909010580    4.05899365813091
C         4.76360119626993    0.30132547245058   -0.01209525967420
H         5.73550647184973    0.48256244823818   -0.48989036049314
C         4.15058488448515    1.64034606323205    0.38336394190643
H         3.97508672660394    2.24611339442384   -0.50184086383937
H         4.80505456455307    2.18738725962569    1.05791636191802
H         3.19717663912943    1.48262587935998    0.88443722653726
C         3.84911379450522   -0.43310255824024   -0.98951532822586
H         4.23291583779678   -1.42000080632115   -1.24285191268770
H         3.76162545554938    0.14037638729633   -1.90866122352056
H         2.85458412617583   -0.54431857020689   -0.56382262580459
C        -0.35349077691328    0.76446796194913    5.93780251657699
H         0.36987080444725    1.44674812277222    5.48132166818451
C        -1.47603779391232    1.57846353095825    6.57340265925047
H        -1.06748856691038    2.23459406498344    7.33719377448206
H        -2.21676051426190    0.93135703769443    7.03957888339274
H        -1.97576670939525    2.19234176729460    5.82807342028324
C         0.39266432658077   -0.06787939801841    6.97648594875521
H         1.20776782972050   -0.61141907196710    6.50406311275969
H        -0.26363330168773   -0.77637134145436    7.47932454556122
H         0.81929043924484    0.59056902823635    7.72842159730284

