48
CSD_code = OLONAF | q = 0 | S = 0 | Stoichiometry = C23H19MnO5 | MND = 8
Mn       18.53915724685789    2.51269091015271    6.28803619456832
O        20.57358202844328    0.09406328524969    5.32332887057805
O        24.48291385468791    0.38861061349835   10.10155888624833
O        16.17579260377125    3.57103007395868    4.90955900512441
O        17.46173796937522   -0.10907319498379    7.05390116000367
O        18.02019561286561    3.53069932704195    8.99502657066940
C        19.37327456307214    1.98968867262441    4.32189111831760
H        19.00308462862178    1.35671870468060    3.51878953505391
C        20.22337990750938    1.39966105996768    5.27867694119110
C        20.70021380397853    2.22152302098593    6.35535113096664
C        20.41149882425527    3.61921776647583    6.28751501719598
H        20.73511356440042    4.24647517959792    7.11734128734001
C        19.69382650084139    4.15983097368876    5.23382619710709
H        19.51874483605632    5.23193829758357    5.21172198416732
C        19.68956206183204    3.42377287110999    3.91435891304458
H        18.88634745101084    3.80140006955105    3.27153749182952
C        20.00667918857814   -0.80212425840145    4.39355570445373
H        18.91927047237181   -0.85773588056153    4.51007532540225
H        20.44569917070888   -1.77147574507002    4.62226015739395
H        20.25426591453812   -0.52449553789012    3.36388806544726
C        21.66294775149443    1.70520751644519    7.34651270624819
C        22.84989616162100    2.39816660592812    7.58594981660779
H        23.06761219388089    3.30301372352305    7.03571836632049
C        23.76402613780112    1.93304686093801    8.50419121567226
H        24.68531111693923    2.46253371617608    8.68945348051955
C        23.51706524419583    0.75959420263414    9.21844122524737
C        22.33185138068660    0.06753154371984    8.99022281382317
H        22.10222623517394   -0.83637273398293    9.53191027714140
C        21.42080273862350    0.54021293524337    8.06463970065558
H        20.49458112030766    0.00463244595378    7.91350473330021
C        24.29443765935518   -0.78718244848401   10.85110729229241
H        23.40613292377467   -0.72084396074673   11.48762727952658
H        25.17955507417340   -0.88131289433020   11.47831073742936
H        24.21423215180695   -1.66732846195620   10.20463523382293
C        20.98571998202310    3.47853477798569    3.12504281491960
C        20.95666956712663    3.10234785762180    1.78587085425325
H        20.01263301737922    2.83874697852135    1.32838851012737
C        22.11693725712510    3.06606010740009    1.03563687708083
H        22.07603648729259    2.77317857217258   -0.00334716597533
C        23.32779668451834    3.40765214296771    1.61451887853966
H        24.23578759993883    3.38046942618195    1.03076410408476
C        23.36621704623534    3.78863938726180    2.94370651832451
H        24.30572529086830    4.06129119461208    3.40201023879131
C        22.20351761381473    3.82222285680966    3.69443986397031
H        22.25135217878599    4.12993596029767    4.72907705894619
C        17.07924419911824    3.14968362497859    5.47930200922462
C        17.86257693901399    0.93042046105675    6.76042030479069
C        18.20586804313327    3.13670139180895    7.93164469821181

