36
CSD_code = OLOPAH | q = 0 | S = 0 | Stoichiometry = C14H17ClN2OPd | MND = 4
Pd        1.48844040248580    3.87059943037063    2.93265379186065
Cl        0.40853918417775    2.00341794933824    2.43838327840902
N         2.73340998123073    5.29623096466416    3.63708117867515
N         3.31533873845233    3.57949676865225    1.68912477619743
O         2.68366768239716    1.85530276358851   -1.40050017364757
C         2.41639887667494    6.27363748221951    4.48632706528178
H         1.36598113233071    6.51976433157063    4.56570584333411
C         3.35026503472973    6.96640171863080    5.23226008001279
H         3.03439189442579    7.74915458733946    5.90291710389980
C         4.69036186435641    6.62877172577301    5.10074238984478
H         5.45084895692157    7.13216989274121    5.67728137085217
C         5.03202759875564    5.64007020513540    4.19799984795826
H         6.06813857155604    5.37693788018984    4.06464474807012
C         4.04061434388182    4.99112337455254    3.46132462191589
C         4.36199138101624    4.01350461763934    2.40837944804204
C         5.66054577131149    3.61049556961013    2.09422965733255
H         6.50457312252280    3.93172242571703    2.68145971900170
C         5.85586614046386    2.77436911358268    1.00836285002504
H         6.85075538085160    2.43881516200119    0.75600468291978
C         4.77173322981327    2.39564591923310    0.23689342807724
H         4.88077974670095    1.78163387922273   -0.64051189843870
C         3.50161558947519    2.82678522395836    0.60975521476234
C        -0.07261002730138    4.32192952510008    4.18830802207560
H        -0.47160491533683    5.29872126533234    3.87305073282878
H         0.28781788414547    4.37943181336215    5.22543155809784
H        -0.88312078882657    3.59159074116352    4.14423439105113
C         2.27483377875633    2.48681589066822   -0.20025755620734
H         1.66099683066953    1.79124032327881    0.40039863195218
C         1.44077197071109    3.75402975722045   -0.45365463279807
H         0.55712487357087    3.50467456314232   -1.03449461984653
H         2.03051601895382    4.48957215145071   -0.99765163547969
H         1.10783657103173    4.17644731059539    0.51086770604130
C         1.69883032624593    1.03869998819192   -1.98349320048897
H         0.84349579976627    1.62012117414073   -2.34345807204647
H         1.33877465605649    0.28506531437779   -1.27381199757529
H         2.17475239701717    0.54580919623621   -2.82968835198997

