51
CSD_code = OLOREN | q = 0 | S = 0 | Stoichiometry = C23H25ClIrN | MND = 8
Ir        4.41743943555120   -0.32940564995668    7.62955705403587
Cl        5.72672092967392   -0.58820978510382    9.57280834659774
N         4.98759626057816    1.65748671930905    7.50158209118322
C         2.96330265276789    0.34392416871205    8.87603550384874
H         2.92979485681833   -0.07387136504724    9.88200813145633
C         1.98004209227892    1.17294130917658    8.54191674522467
H         1.16480336599627    1.37048931520723    9.23288767111136
C         1.81056832211279    1.78310836117541    7.22362384575000
C         0.54021121997832    1.75510813036462    6.64363558837562
H        -0.26554170743089    1.29038435553861    7.19406319376050
C         0.29997259646407    2.29074225931116    5.39533128473647
H        -0.68976545617830    2.24269681267340    4.96531980986874
C         1.33447272693066    2.89582351211439    4.69787737540461
H         1.16099338789403    3.31753908398069    3.71929722670239
C         2.58731470271482    2.97125225083606    5.27275430245168
H         3.39071201200321    3.45863555506713    4.73758563388761
C         2.84786577364465    2.41479610592852    6.52655434040925
C         4.19551137779222    2.65865309629898    7.08120916323403
C         4.64111825473357    3.98089457907251    7.08406029859136
H         3.96181694609415    4.75903020899654    6.77213201042787
C         5.92421056290189    4.28666101993166    7.49393964045596
H         6.27187622016055    5.30827388873818    7.50953172998253
C         6.75030031510044    3.23977871267913    7.87092062185629
H         7.76950547355306    3.40959529288362    8.17770818007025
C         6.24328356210481    1.95624235220686    7.86089595715949
H         6.86102813209304    1.12877813836638    8.18012080133993
C         3.87382043779047   -0.91767353174966    5.50440784499470
C         3.12671054072541   -1.73315200871700    6.39829653059506
C         4.06725276581013   -2.44444200892669    7.20950492697119
C         5.39349635157749   -2.20555270208509    6.66113017077997
C         5.27772752275008   -1.25318976545990    5.65105852679317
C         3.31841054036612   -0.15639938780655    4.34444920132289
H         3.30464570514237   -0.79842353285388    3.46058338589679
H         3.92615549400171    0.71640807468807    4.11293267891025
H         2.30213029787681    0.17536937390515    4.53986830018252
C         1.63960973007965   -1.89446375541175    6.41032351088093
H         1.35122098456130   -2.68147753522176    5.71066978562394
H         1.14391250473644   -0.97309559254990    6.11324106038237
H         1.28485501477916   -2.16967444115822    7.40026124956348
C         3.75324203183740   -3.56210678678299    8.15634551245298
H         3.77430472790899   -4.51798635087967    7.62839175851648
H         2.76752393856641   -3.43415112408378    8.59707715315178
H         4.48682810685067   -3.59802780261807    8.95865388459844
C         6.61879991499326   -2.92278182146420    7.12103324350767
H         6.47911061750756   -3.99957026370782    7.02002106676110
H         6.81427799872938   -2.70505528394349    8.17151662450984
H         7.48967810307790   -2.62871139260519    6.54019540598322
C         6.36154934740876   -0.73592737355891    4.75833599815428
H         6.36393012499412   -1.28147250322705    3.81207706853867
H         7.33965863587918   -0.85057723383831    5.22076438742713
H         6.21339454566956    0.31998632159604    4.53340417555428

