63
CSD_code = OLOSEO | q = 0 | S = 0 | Stoichiometry = C27H31ClNO2Rh | MND = 8
Rh        6.57388668835820   14.94759855615187    6.95317800857131
Cl        6.26686495654723   15.51398804902444    9.20279314825995
N         6.31471359017647   16.94523723364808    6.43754815578789
C         4.54843051956513   14.85831342274381    6.80842022890533
C         3.82666893935204   15.01254225329857    5.69538079386971
C         4.44267704337256   15.35412484039735    4.40225664070577
C         4.09618184298331   14.62184425986665    3.26517399905558
H         3.42175375281875   13.78504285390802    3.36923114157350
C         4.60073123416229   14.93896667334989    2.01977367298942
H         4.32204376394490   14.35055369565971    1.15775907569331
C         5.45768982858775   16.01889256777684    1.87713831641695
H         5.85231436143279   16.27945532825703    0.90662248436012
C         5.79470468198068   16.76848264945134    2.98692266067584
H         6.45342274283646   17.61969956920471    2.88044666236548
C         5.30684098880320   16.44440845156122    4.25309019979539
C         5.65813241672083   17.37045012645069    5.34997073962464
C         7.67207887047352   13.95960982389874    5.28814918366253
C         8.67499880372559   14.56533006544237    6.15066292098787
C         8.57459558490770   13.98213111910959    7.41892837193812
C         7.47433011624065   13.03031454481538    7.38418866445438
C         6.99453180045067   12.95690724035411    6.04113537468696
C         7.69190386657689   14.07015202723182    3.79671613846554
H         8.46926457376025   13.41149468054954    3.40225406596298
H         7.91484655606904   15.08421673571164    3.47396458110635
H         6.74158537322222   13.77370178906256    3.36207844467601
C         9.71900822686776   15.52782317888566    5.67322045719249
H        10.51245650236169   14.98208881854652    5.15837166341832
H        10.16109455331906   16.07452057967750    6.50308696401833
H         9.29856017154692   16.24803003963548    4.97286287522431
C         9.45830012181943   14.18387427412298    8.60781650430026
H         9.95726618407313   13.24613148153345    8.85599587175957
H         8.86803416541498   14.49299236815790    9.47049147045979
H        10.21438789585152   14.94084930167429    8.41443432351028
C         7.19728242056861   12.05381035503732    8.48300608342732
H         7.99664916396327   11.31022444067768    8.51826073770335
H         6.25187099622821   11.54551891879993    8.31867650772318
H         7.15921693325748   12.56292247153657    9.44363837176347
C         6.02183367900840   11.94992457304368    5.51264616950576
H         6.54660810448180   11.01867004053282    5.29016771264931
H         5.54924097945184   12.30651127369354    4.60072892189970
H         5.24655316082323   11.74296764804637    6.24682849159688
C         3.87401219612021   14.49155423805609    8.07618060532610
O         3.05481581118541   15.16324593818276    8.65578939830951
O         4.26188350541072   13.26980998807800    8.48653684047619
C         3.73972980309387   12.83248497142223    9.73761377366346
H         3.70551264587574   13.68778752733356   10.42004122601921
H         4.45361435341543   12.09337140139738   10.10856348228200
C         2.35174355804180   12.22502669012852    9.58368011045032
H         2.00810085675431   11.84858260912282   10.54316497922250
H         2.37439937062436   11.40614318261284    8.86747689192258
H         1.65620798415336   12.98285130363833    9.23240704741028
C         2.33367138968650   14.77538230018135    5.64927391539697
H         2.11474178957651   13.71756022104873    5.49982646369436
H         1.88452233256550   15.34120716344297    4.83555113652031
H         1.88230339550524   15.08576312514088    6.58668924975313
C         5.36148741067283   18.72052209878145    5.16462820890289
H         4.80166455311642   19.01612619741147    4.29070857002558
C         5.76807060212050   19.65440287683005    6.09766975035100
H         5.52765935753748   20.69956298082012    5.97504210481029
C         6.50806487369772   19.21028411406215    7.18114533203973
H         6.88243252368398   19.89473638501319    7.92492265930948
C         6.75417740310177   17.85663154059544    7.30993631216597
H         7.30872812794065   17.48404482614886    8.16153514119935

