70
CSD_code = OLOSOY | q = 0 | S = 0 | Stoichiometry = C32H33ClIrNO2 | MND = 8
Ir        6.94873830328437   11.25391579888545   11.01977248165878
Cl        5.22935537731182   12.21091395746500   12.34491157304919
N         8.39843908339361   11.95245771960162   12.36405385083006
C         7.24522083611918   13.06698594527537   10.11238954192768
C         8.40560245251125   13.39353048113157    9.51653348427580
C         9.61264875235601   12.55075497153875    9.50465675676381
C        10.26663019163057   12.34771452347291    8.28898437771163
H         9.83908094403335   12.77451204998663    7.39310697751762
C        11.44152603988367   11.62690702501710    8.21383116201993
H        11.92887809358441   11.48367790382431    7.26084502316540
C        11.99723462335720   11.09504641264778    9.36718216030843
H        12.91695889299199   10.53160503111178    9.32075437292472
C        11.37306884025255   11.30243794485943   10.58084639025578
H        11.80912156640159   10.89798606884781   11.48412099145629
C        10.18039770846238   12.02227401727285   10.66766741883164
C         9.65586532648929   12.27836945407943   12.02223661027892
C         7.82328658788052    9.42244784255143    9.95842412805852
C         7.21632082303517    8.92825624405361   11.17926140132296
C         5.85252733017720    9.21719302391822   11.13794611632049
C         5.58518373394113    9.94762590316567    9.90824636971806
C         6.79367770264238    9.97180732238354    9.14316260222427
C         9.18025696705311    9.01709489127198    9.48443049545497
H         9.13030682829700    8.00753515559614    9.07007541506798
H         9.90150905196435    9.00908249703506   10.29822376922309
H         9.54487030350018    9.68409009924495    8.70862602287426
C         7.94552202703134    8.13020735316083   12.21314714418718
H         8.04447554156028    7.09337814049331   11.88500645602015
H         7.41537113010388    8.13887400402483   13.16297884631769
H         8.94736302503487    8.52527164514500   12.37731512109839
C         4.79158312810295    8.81700950230435   12.10743471655099
H         4.05552778257644    8.18244247973398   11.61224344093721
H         4.27594593297020    9.69933421962365   12.48692378521059
H         5.21066665036693    8.27135419734737   12.94932851232313
C         4.19836489326078   10.21573495397481    9.41169608996733
H         3.67046389340650    9.27150487551644    9.26601730425526
H         4.21269949712994   10.74861348211510    8.46473865424169
H         3.64054935513223   10.80650848081851   10.13618882165014
C         6.94287182715867   10.38156265921029    7.71211031689605
H         6.82179660650681    9.50911768252021    7.06671427342992
H         7.92716538787289   10.80706641395951    7.53072615221321
H         6.19679504569051   11.12103179988173    7.43288099956969
C         6.14372472818020   14.03859834189096   10.14396401860871
C         4.99776424726943   13.87866275189384    9.36976461601813
H         4.92469529744964   13.02810794953262    8.71079055638776
C         3.97255884858718   14.80146919110335    9.43492011938523
H         3.08968930195390   14.66765342088281    8.82576284281283
C         4.06876065930254   15.89310240306881   10.28200627129845
H         3.26204539524408   16.60972752858177   10.33872533802722
C         5.20259823438202   16.05926745320921   11.06014347588179
H         5.28329819363276   16.90826744857828   11.72402153944541
C         6.23454322622136   15.14352220255191   10.99027855263707
H         7.11913191326140   15.26746162190229   11.59952603765510
C         8.60236364427046   14.68435899606254    8.79775893765392
O         9.62626125574261   15.32557461659967    8.84494068711066
O         7.53783714808636   15.03353977907923    8.06731814432493
C         7.59379437406925   16.28675712177068    7.38975054977211
H         6.91326591858129   16.18139528296755    6.54154702651202
H         8.61673117786276   16.45178019570509    7.03230556502839
C         7.16270144206435   17.42931416003600    8.29768123721437
H         7.15493517456854   18.35970253482629    7.73666810712989
H         7.85778045551652   17.52187221422981    9.12877554053922
H         6.16836369827683   17.23567727860608    8.69305044104935
C        10.54447469159142   12.81725933059399   12.95305924816303
H        11.53186381055191   13.10030728226027   12.62403636705715
C        10.15324917805018   13.00013929075460   14.26482493334468
H        10.82856051801958   13.42868742569665   14.98956232115328
C         8.87330326725200   12.60474453809699   14.62032281937371
H         8.51657349721354   12.69785585261733   15.63318912905909
C         8.03894114623468   12.09383921270015   13.64623995670006
H         7.02592147211268   11.80872040013245   13.89392549253743

