63
CSD_code = OLOSAK | q = 0 | S = 0 | Stoichiometry = C27H31ClIrNO2 | MND = 8
Ir        6.92821608258306   18.70258827008837   14.13553817552108
Cl        6.64832677620474   19.25672506035438   16.42032660956142
N         6.65728185702487   20.70071847385433   13.64245658762206
C         4.87882151455497   18.62102059826552   14.00208515405542
C         4.15401452596543   18.78665432310115   12.89103635751762
C         4.77603202949675   19.12626845216857   11.60061927566307
C         4.42543114703871   18.39287319989393   10.46545048176239
H         3.74191466247749   17.56421950959034   10.57203057534134
C         4.93640204275859   18.69773023132505    9.21983376249060
H         4.65304472590175   18.10903167309549    8.35963464552860
C         5.80708305406696   19.76635650328093    9.07490946056883
H         6.20750843835434   20.01746781936207    8.10435037521544
C         6.15121996008645   20.51476059546548   10.18298664152898
H         6.82294110750547   21.35534408521209   10.07490564655055
C         5.65560664705469   20.20358984359349   11.44981455949273
C         6.02128413618782   21.13078382760720   12.54037088727398
C         8.06618738308911   17.70372192728533   12.45260644944594
C         7.38105830588799   16.69625982153251   13.19427478704629
C         7.85893110233185   16.75493279197789   14.53764705317634
C         8.96123985964481   17.69981533986697   14.58072954393538
C         9.07105214380177   18.29022366678283   13.32005536189691
C         8.07714403873638   17.83595914920125   10.96410072781821
H         8.84114020263305   17.17584870792468   10.54686157449280
H         8.30889629917752   18.85320364877977   10.65685386866993
H         7.11819429704570   17.55985348273489   10.53465388981040
C         6.40769208154308   15.69932725626744   12.65012989238702
H         6.92833600613617   14.77289450953646   12.40050011576868
H         5.92683500131630   16.07768684732141   11.75148271543891
H         5.63798647541265   15.47582792796821   13.38484240203838
C         7.57084965235145   15.77347094259659   15.62799598402438
H         8.35339298484596   15.01219447575931   15.65888414594528
H         6.61424161549983   15.28632493696401   15.46400312182241
H         7.54427954210669   16.27664922827249   16.59207391620566
C         9.82535689180189   17.90666122721066   15.78009937028568
H        10.30839116857871   16.96903778230623   16.05749638607355
H         9.22133930775986   18.23824702431758   16.62514345204719
H        10.59463515935032   18.65131507302005   15.59046744259976
C        10.10707163487689   19.26713496317099   12.86118398940775
H        10.91296149966016   18.74264233042983   12.34373905493224
H        10.53637511069363   19.80949570620223   13.70073057223881
H         9.68132965172715   19.99174932002653   12.16818459156391
C         4.18980179806204   18.23405668885425   15.26186721918078
O         3.36603797480623   18.89654588847831   15.84425928088064
O         4.58520701603555   17.01497381952502   15.66682352330966
C         4.06613722499507   16.56580398866152   16.91599404315027
H         4.02539621301753   17.41688994456509   17.60326070768284
H         4.78703422827354   15.83081073527556   17.28155511194293
C         2.68304148487855   15.94830396622561   16.75932411657389
H         2.34181199630687   15.56622398382090   17.71742361199609
H         2.71223439667114   15.13208538486025   16.04036123246453
H         1.98207303862732   16.70209295148378   16.41003056405710
C         2.66141092245891   18.55329612615025   12.83812182513413
H         2.20783476138555   18.86271182521224   13.77438243141915
H         2.44136184231231   17.49631586811854   12.68652106063804
H         2.21676295479783   19.12129781184015   12.02379488849186
C         5.75794932197667   22.48451179464001   12.33652893593961
H         5.21479031384665   22.78089852790884   11.45257948791046
C         6.17385345588511   23.42250786628590   13.26153862223206
H         5.95879320471748   24.47086324937506   13.12233084600311
C         6.88860168469431   22.97470820030962   14.36079455272777
H         7.26743663642057   23.65900810299902   15.10231655377078
C         7.10427116401737   21.61913797294081   14.50864383842717
H         7.63481224253970   21.24684474875322   15.37345794129417

