89
CSD_code = OLOTUE | q = 0 | S = 0 | Stoichiometry = C46H38ClN2NiP | MND = 4
Ni        2.41317642471513   -0.05481852836667   -5.16772259346619
Cl        6.04378842046398    3.45302192362558   -3.07497710613152
P         1.44835163248765   -1.61003573100130   -4.06066130701345
N         2.88283718638236    1.20178034489071   -3.75489119999667
N         3.73915242933106    0.98787369616577   -6.26560325100245
C         1.46892688285047   -3.34906952040964   -4.60638203737418
C         0.60675503597831   -3.76725303618168   -5.61629949778325
H        -0.12401004176311   -3.07782713695754   -6.01472872526245
C         0.69367243950535   -5.05107722921129   -6.11823971227053
H         0.02325812127230   -5.36563234438540   -6.90432050580283
C         1.64464397505195   -5.92899469764742   -5.62348184063367
H         1.71767522371474   -6.92925334859558   -6.02364781658823
C         2.50205807709732   -5.52061353564888   -4.61662744061589
H         3.24385949565274   -6.20256768551057   -4.22764922706043
C         2.41827794230981   -4.23586131654794   -4.11094056688220
H         3.09409817921662   -3.91855039353326   -3.32898531510973
C         2.01111511237622   -1.78179027791438   -2.33031900904003
C         3.34858215361310   -1.50346333707653   -2.06801927244928
H         3.99711971247992   -1.20416039326951   -2.88269797424960
C         3.83896015818657   -1.57674558622885   -0.77847596901933
H         4.87527995650737   -1.34661975046880   -0.58047291977405
C         2.99272423675484   -1.92709376516373    0.26017350629489
H         3.36820880081397   -1.97042962701248    1.27162233764679
C         1.66208563090515   -2.21269396704413    0.00323758519414
H         1.00190527198731   -2.48289135717166    0.81454330778875
C         1.16847943963828   -2.14276627786312   -1.28713301593886
H         0.12487526380945   -2.34722658440379   -1.47714542953556
C        -0.32138373092806   -1.21875165741251   -3.96419294853918
C        -0.66481973148463    0.09328982459833   -4.27840014836953
H         0.12922987371232    0.78304628422912   -4.56942504025982
C        -1.98284709553545    0.50455180421939   -4.21892341071766
H        -2.24630492328572    1.52376349211988   -4.46043351142277
C        -2.96650117640560   -0.39918885326969   -3.84881002259595
H        -3.99816489296105   -0.08351514022499   -3.79980598816105
C        -2.63184023426856   -1.71062229669346   -3.54999940204016
H        -3.40367065549304   -2.41358680906841   -3.27197498253195
C        -1.31307312574690   -2.12624319483266   -3.60879132443186
H        -1.05572599952771   -3.15489860042609   -3.39583181059167
C         2.66042353587668    1.53423004208230   -2.46557877973254
C         1.58179229823828    1.21326942716221   -1.63268891158671
H         0.75567367420930    0.62730989241007   -2.01035426043658
C         1.59630218191485    1.66338407156140   -0.33836646951788
H         0.77469160780840    1.41742717893310    0.31968000155685
C         2.65046992161481    2.44817792816996    0.15952590808408
H         2.61586106723847    2.77613304985700    1.18844844897268
C         3.70096305889970    2.81273685231111   -0.64055854469797
H         4.50394212445942    3.43325915669196   -0.26987719792362
C         3.71610189607296    2.36541166242754   -1.96654712243844
C         4.58799651274170    2.54467183053222   -3.05301319456465
C         4.05293430628743    1.82992864510359   -4.12521724164723
C         4.46181560281528    1.71053541429257   -5.47663908543706
H         5.32671476902170    2.26670144749316   -5.83382857173271
C         4.03698615901466    0.81792052825945   -7.62361215136663
C         3.06729632511648    1.20872363155937   -8.55744113042932
C         3.24670470185327    0.89460593961239   -9.89239037579031
H         2.48971298267399    1.18673392070960  -10.60655731330945
C         4.37109297016813    0.20841435310034  -10.32667907938963
C         5.34824608396279   -0.11382763381326   -9.39725206409041
H         6.24246088797530   -0.62440675462468   -9.72657431742354
C         5.21254309187646    0.18950181441419   -8.05144409821073
C         2.00178299793494   -1.13369851779290   -6.63983628950650
C         0.86503462676117   -0.93729405215557   -7.38785009114478
H         0.07637599105642   -0.27495041640595   -7.04929416133221
C         0.70048750522322   -1.58275728743962   -8.62575809137527
H        -0.19213728440601   -1.38296305208993   -9.20246425821875
C         1.64687913488999   -2.44614926036006   -9.09730251356225
H         1.52212674129298   -2.93269387723495  -10.05426049375166
C         2.79185735880109   -2.73629900980840   -8.32891766245724
C         3.76728603346986   -3.66569944648602   -8.74222321990419
H         3.64402969257094   -4.15238678524690   -9.69990736682445
C         4.84049846043072   -3.96073664570441   -7.94940610622647
H         5.57795002310839   -4.68024025649439   -8.27559194228230
C         4.99201430984565   -3.33849299243309   -6.70120732945984
H         5.83781964829216   -3.59402830214180   -6.07895416245725
C         4.07522376055356   -2.41644627332051   -6.28548991414671
H         4.17656457597338   -1.91832638024055   -5.32103100715156
C         2.96014127081222   -2.08370881442151   -7.08046821742402
C         6.32138930230722   -0.16720804390834   -7.10555804618917
H         7.07391574232473    0.62304021717810   -7.09678494914620
H         6.80542231195888   -1.08729173113507   -7.42516435002072
H         5.95871499578116   -0.29910891450887   -6.08939778403440
C         1.88269359899418    2.00615085726336   -8.10423359126800
H         1.58378231153355    1.70802467700563   -7.09570538623362
H         1.04444129824712    1.87820350547763   -8.78428674223322
H         2.14092546689256    3.06590178021609   -8.06978954590246
C         4.53001468746344   -0.18912540923782  -11.76280238525898
H         3.84659206060781    0.36722776342981  -12.39942937501703
H         4.31543286143926   -1.25206282894726  -11.87676042066973
H         5.54925928658111   -0.01610829159642  -12.10282545998426

