132
CSD_code = OLOVUI | q = 1 | S = 0 | Stoichiometry = C65H59Cl2NOOsP3(1+) | MND = 6
Os       18.13216087647669   12.93681201274547    2.83075209951654
P        18.64291741816211   14.37840003895642    4.68335808510648
P        18.15450994128123   11.62760555060533    0.81866933237478
Cl       17.72696527322825   14.68676150820310    1.38078206091241
Cl       20.45523713314639   13.03555515015984    2.53195791726009
C        18.36479736528802    9.85126502549118    1.16155168820638
N        17.88102256756411   11.52149313910140    3.92805833167578
C        15.60529986746435   10.77123074426648    4.14920395776737
H        15.01803869898115   10.52381999808316    5.04022072071825
C        16.79809693029210   11.70904210280159   -0.39669297615049
C        17.22793612847218   16.79192110426419    4.98995432973083
H        17.99499537835954   17.24791241212479    4.38163146637978
C        19.56159841493215   12.00996410901455   -0.27180618680697
C        20.01755246935603   15.55222561409507    4.44901709179751
C        19.16823580038771   13.45567401140311    6.16492428883723
C        15.23140178825793   12.15718732544666    3.66329159249796
C        20.07559326867897   16.31157674526919    3.28190116849484
H        19.32519084434922   16.18545127726702    2.51392225114805
C        15.60641825360256   12.35848191529372   -0.10387342836919
H        15.48371820980928   12.81925844371292    0.86615852743140
C        17.62403928835059    8.84881943971791    0.54624581282531
H        16.87175792042730    9.10061306960622   -0.18685515054071
C        17.09070404275173   10.75217610366070    4.50752760617026
C        19.47786306727012   13.16105588925245   -1.05343548134561
H        18.59231651779283   13.78005817141682   -1.00803964325637
C        20.42611060649343   11.61568241555011    7.07424216687106
H        21.03296664728232   10.73423076844105    6.92567288426671
C        19.31438759371444    9.50898662928160    2.12435133419757
H        19.88156077710623   10.29338108396800    2.60977716308825
C        21.10580796137125   17.21315147700345    3.09020434780777
H        21.14571057980248   17.79263500735956    2.17988140999435
C        14.60583508055427   12.44337920664289   -1.05755617707891
H        13.69096657488668   12.97348362592707   -0.83233162233564
C        16.29346039753539   14.85464730024653    6.07036713426657
H        16.34458319829728   13.79761501948730    6.29274608201102
C        17.29615867371911   15.43764189900178    5.29666658706667
C        18.90181093251604   13.90044740539737    7.45672449140851
H        18.32498463919795   14.80005588856052    7.61491997339332
C        16.98058296645982   11.14650018121711   -1.65945161497712
H        17.91677394340295   10.66151224810153   -1.90124764369236
C        16.18542658138535   17.56144158984543    5.47771166674106
H        16.14322381401435   18.61472531387941    5.24360867611074
C        19.53091317893201    8.18354723928375    2.45043953835674
H        20.27594110545170    7.92385342499424    3.18806981448361
C        15.21083353539275   16.98852260770196    6.27703738713644
H        14.40791161292857   17.59305531285957    6.67153978372450
C        20.70447437095605   11.21998280028294   -0.32667790253297
H        20.78251210424708   10.32749750241793    0.27695341828410
C        19.94276505943913   12.31341038589710    5.98247450931921
H        20.17881127636426   11.98523880044211    4.97875035464252
C        18.79665213945272    7.18696011189949    1.82585883925290
H        18.96659269206375    6.15113141210944    2.07769357432861
C        20.53065935427934   13.51665953550620   -1.87446793319874
H        20.46356220018412   14.41391952457800   -2.47151955451092
C        17.84438180713289    7.52231858920855    0.87834962035297
H        17.26898506620473    6.74803958132707    0.39324353067277
C        21.66898422188293   12.72841504967926   -1.92720743191218
H        22.49248028911087   13.00965706577916   -2.56613283697430
C        14.78570687473204   11.87060477375135   -2.30506863811022
H        14.00779004600259   11.94031240167437   -3.05031348724196
C        21.00725595837369   15.70422003864481    5.41530525670711
H        20.98521774591384   15.11355449618407    6.31932907272710
C        15.97396922677317   11.22141490078855   -2.60352356554426
H        16.12020624496472   10.78341881855766   -3.57939016951288
C        22.03383042233645   16.60999767563555    5.21578865572111
H        22.80015587863617   16.71918999646772    5.96871955230176
C        16.07374493089900   13.05218039737314    3.12208099834546
H        15.62896720343580   14.00919527430598    2.83750805097757
C        19.38684811069628   13.19735248758484    8.54463994221735
H        19.17839579704637   13.55097133957738    9.54380975714582
C        15.26538546813265   15.63328484757940    6.57042983548658
H        14.50412116927288   15.18642792527368    7.19321911834623
C        20.14690992524005   12.05460299462970    8.35767615880206
H        20.52946916247562   11.51400546553657    9.21028810830671
C        21.75083930729624   11.58100482098849   -1.15649227984509
H        22.63684078405254   10.96472737618682   -1.19472104047078
C        22.08618607890242   17.36552564989820    4.05677820714592
H        22.89369076732634   18.06532533252629    3.90331723756146
P        13.47946242193532   12.59560600260616    3.82783211758623
C        17.50396716591584    9.32192521726407    8.03364302689905
H        18.07746045160858    8.45337230639195    7.74163678834065
O        16.59282604035610   11.30989375412149    7.13114871426673
C        12.32305167073920   14.17728911334198    1.79809495238872
H        11.85300719399537   13.28252687416512    1.41670601984591
C        12.40943940436492   11.29656319987621    3.15700458461392
C        13.12127788467519   14.12650404260407    2.93530378690726
C        13.71579252432055   12.56492531708076    6.63560084757397
H        14.69181551179383   12.12118584468163    6.51739761474945
C        12.94516211073469   12.90286507510769    5.53065638415945
C        11.23251425603743   13.77384420212666    6.97371353988776
H        10.27163276329874   14.24695244071487    7.10627270744486
C        15.36930132967438    9.66395046630220    3.08929977395795
H        14.88633803649667   10.09567094360023    2.21325290112781
H        16.33443983813674    9.28062369381786    2.75612757173981
C        13.68753071554071   15.29522658497206    3.44466795101233
H        14.28010685277780   15.25322544626697    4.34762977231702
C        17.53628318477786    9.76714556487478    5.55382633404036
H        17.08188382990615    8.78827851449439    5.38648678738265
H        18.62119385546379    9.65582712629490    5.51534804501997
C        11.70158733143808   13.51294392935006    5.70095247513433
H        11.11234061937400   13.77985025186941    4.83335663765757
C        11.45603771294357   10.65822745781800    3.94287722257149
H        11.34279691249135   10.92632351862155    4.98370818199180
C        13.48155301865362   16.49899674644136    2.79871580714992
H        13.93140995502448   17.39750973227185    3.19160550744610
C        12.56171345662842   10.94092628918830    1.81661995932708
H        13.31437415805134   11.42939375443084    1.21186394387269
C        12.70356836331568   16.54579390875261    1.65228461619856
H        12.54627630815126   17.48478079419041    1.14474635117154
C        13.23459148206508   12.82993985185349    7.90779065000992
H        13.83808306001090   12.57242704861376    8.76470106153416
C        12.11832686980526   15.38978826837863    1.16195626616671
H        11.49848202812947   15.43060576072187    0.27914495108744
C        11.99790056145851   13.42922575438573    8.07878428835179
H        11.62997760021174   13.63528033209668    9.07217526002602
C        17.15726895389633   10.25417898125087    6.94773662598207
C        11.75512423167632    9.96108534881952    1.26945951524665
H        11.87203861503373    9.68864517660723    0.23160972202449
C        10.65309498139372    9.67739071743738    3.38559493841673
H         9.91248098213572    9.18309733454221    3.99534285971349
C        10.79968822036256    9.33050367766342    2.05254844009632
H        10.17050471180591    8.56648172241521    1.62315738236409
C        14.53133321109315    8.50677155641069    3.61739862480047
H        14.38932487567796    7.76562226908745    2.83490405026052
H        13.55148757238659    8.84798702909659    3.94431180995329
H        15.02145801108176    8.01941471366837    4.45721159952000
C        17.73094299777638    9.89484781187906    9.41657449743998
H        17.66930008964266   10.96894427007969    9.50025054391392
H        18.49769106190099    9.43690563706214   10.02073741610575
C        16.48333838872432    9.14634193218729    9.14426158516026
H        16.36078865338471    8.15427130654909    9.54975930090465
H        15.56601841294687    9.70729146659607    9.04770988310960

