29
CSD_code = OLOWAN | q = 0 | S = 0 | Stoichiometry = C12H8ClN2O5Re | MND = 6
Re        7.24479407632329   11.08326472235647   11.71173592907433
Cl        7.75143768113605    9.64194778337785   10.05006214192567
O         6.18329204864751   12.06909909480948   10.90870395016059
O         9.10506493113710   11.89150057091250   11.65515464836889
O        10.63592289206779   13.08697640085966   12.73076711595586
O         7.95086321404432    9.81224553944452   13.06039269077318
O         7.64782787716149    8.12594151445653   14.50348651297449
N         7.28200740873474   12.35674120448584   13.52052887648058
N         5.61184215037548    9.72737706385973   12.13437823026561
C         8.48706091858416   12.88239906136011   13.71803052824577
C         8.78097770912368   13.65127966367018   14.83508354149036
C         7.78414908119819   13.86543101504581   15.77128354703112
C         6.52716826069064   13.31846611068111   15.54731353720862
C         6.31768292827801   12.56707702212778   14.40376136194584
C         9.52883963482793   12.61402223005807   12.62579055721736
C         5.90068836284448    8.74752462991701   12.99318829020054
C         5.01559734745288    7.72750608426614   13.29963842133630
C         3.78416353019119    7.71617719894211   12.66693073043099
C         3.48928620529415    8.73527548883681   11.76910973940501
C         4.42397213940549    9.72505825298420   11.52762939605085
C         7.29660132577789    8.85496486459167   13.60861510216015
H         9.77863154506775   14.04954448435675   14.93557386911986
H         7.97889524458507   14.44719770758718   16.65945656477475
H         5.72100334968279   13.46831081301504   16.24731499991926
H         5.35813346265198   12.12397163247138   14.17862368323422
H         5.32171884040639    6.97297081777294   14.00701311195704
H         3.07203582793424    6.92961064642516   12.86259110554802
H         2.54369024242349    8.76139525731786   11.25210400015167
H         4.24385176395410   10.53632312400929   10.83543781659255

