101
CSD_code = OLOYOD | q = 0 | S = 0 | Stoichiometry = C42H47B9NiP2 | MND = 7
Ni        4.54493231460330    2.74669990096311    0.06546044089288
P         6.27107961777406    4.09986914794598   -0.44819006083562
P         3.67224902754586    3.29981646936528   -1.95430900548299
C         2.83893379130354    2.84593143194850    1.95264204167958
B         2.91628242586434    1.59956213891021    0.82114342323250
H         2.10619454294129    1.67359997989142   -0.03227090598651
C         2.22001840860231    1.51809496672418    2.53051275163046
B         3.31085604208708    2.39903032534995    3.55242731316108
B         4.43738419688983    2.93903512310172    2.28383749332203
H         4.94101131948928    4.00665527131900    2.29667076104520
B         4.27454199050491    0.49020258905238    0.77783231041095
H         4.43682818792119   -0.24565186221148   -0.13427290098288
B         2.94398478454099    0.11950950847439    1.85103860716342
H         2.19153845675305   -0.77350154154458    1.69045979209809
B         3.33284275710679    0.65793043048586    3.51129495550781
H         2.90002095747166    0.07803608729168    4.43850361173378
B         4.88696036400122    1.60330094156984    3.30368609493655
H         5.69861723527084    1.70691955822458    4.15202395013068
B         5.41081488593723    1.38719065092491    1.62706158987512
H         6.57076259580767    1.49151222745343    1.41548687497798
B         4.59256556503505    0.03636352551837    2.47827094409925
H         5.16771286600856   -0.95354312543234    2.75177750387064
C         1.95688934834718    4.02373404255848    1.74314654059523
C         2.26961805594449    5.25249274361296    2.33127428157335
H         3.16440372726231    5.34979431962618    2.92454724080078
C         1.45881253731933    6.35833947899252    2.16423184713360
H         1.72247144233878    7.28819020913108    2.64871458005039
C         0.31157246170940    6.27802619011417    1.39367272282622
H        -0.32568910436300    7.14080586149892    1.26639829636830
C        -0.00399789107782    5.07592337945036    0.78675875283934
H        -0.88945363499348    4.99288310486081    0.17359231266881
C         0.80518502211526    3.96872250926850    0.95649554115319
H         0.52623142617906    3.05695510838198    0.45605907214614
C         0.74987888319244    1.43433731867842    2.74045821530505
C        -0.09172606760221    0.97704933575016    1.72476901794453
H         0.32573554612366    0.67364115561559    0.77713683007713
C        -1.45798597261594    0.88582036785285    1.91065180673399
H        -2.08375177220329    0.53601315859833    1.10214694109007
C        -2.02391781417692    1.23175007803323    3.12532162963296
H        -3.09168351102800    1.16249259546164    3.27135123536355
C        -1.20079628856065    1.64804841004179    4.15533236490692
H        -1.62302865479729    1.89851975495835    5.11796111977296
C         0.16642695891792    1.74368018591840    3.96589733709114
H         0.78145161031622    2.04576915408065    4.79428653663270
C         2.94690673061659    3.35988046655846    4.79730759670307
H         3.65912293444422    4.19104616121816    4.81522507204735
H         1.96028450426104    3.82537434105892    4.70786315510749
C         3.05322194875775    2.67632910076839    6.16656079334729
H         2.35370063120069    1.84852889233722    6.26071071188831
H         2.84928602098325    3.38416868360406    6.96898395445474
H         4.05484731586962    2.27733478195150    6.30578285363322
C         6.17410139085644    4.39261418872097   -2.28969327062498
H         6.82025103153816    5.22582493650684   -2.58073215262575
H         6.51416975304083    3.48288252349555   -2.79196179138768
C         8.05977098024510    3.92705478375031   -0.14849875432009
C         9.01460002399584    3.69304382550089   -1.13002755702991
H         8.73032662533271    3.64970926757030   -2.17044758827674
C        10.34282925621012    3.51483481137141   -0.78012991656382
H        11.08036913071932    3.33983588965081   -1.55034757607260
C        10.72882817123682    3.55772173146271    0.54826468076610
H        11.76600561308282    3.41786722072786    0.81500151549823
C         9.77874464827782    3.77103455299817    1.53560850943392
H        10.07437060474319    3.79440091610394    2.57408912818841
C         8.45395490077991    3.94633213118170    1.18914479931689
H         7.70285037037425    4.09923333984548    1.95205680697262
C         4.72269729581378    4.66677517023719   -2.66968641026922
H         4.59830285016320    4.71274255834626   -3.75532548116100
H         4.41085968716692    5.62164890334460   -2.24145464380741
C         6.01004026266114    5.84372805502186    0.04522155379729
C         7.02912557771500    6.78471271466425    0.13263911333818
H         8.05359834550026    6.48694460826418   -0.03879992186471
C         6.73430075894989    8.10039471211928    0.44408292574255
H         7.53160666115131    8.82604033699167    0.51563643711632
C         5.42237284588336    8.49159865972752    0.65741122296374
H         5.19752398028237    9.52123370090727    0.89425051421960
C         4.40136501819013    7.55954191981448    0.56932692869633
H         3.37597588451060    7.85593278089426    0.73425668833397
C         4.69655740492275    6.24198607810696    0.27280108964340
H         3.90439839620034    5.50229147784778    0.22408249378481
C         4.10046757761493    2.04562421000001   -3.21309854953838
C         3.57754466389911    2.03133255985450   -4.50110306052893
H         2.82421443165025    2.75235662695082   -4.78732141830673
C         4.01596563560185    1.08843881371967   -5.41353092637467
H         3.60335823114020    1.07529919612852   -6.41217297663072
C         4.98390869925179    0.16433671035317   -5.05263045573308
H         5.32124157478102   -0.56918390545456   -5.77021674560604
C         5.51622732662932    0.18197682993026   -3.77370909033658
H         6.27097355139547   -0.53656353004603   -3.49054697048940
C         5.07494689699491    1.11919296725566   -2.85729042019266
H         5.46883168715571    1.13908626013371   -1.84494991717068
C         1.98025094695937    3.76611981943689   -2.43259421074292
C         1.05474538216824    2.74251617102356   -2.63608216172169
H         1.39643844875976    1.71582891231964   -2.62770745543208
C        -0.27808045533289    3.03120432560757   -2.85512902551942
H        -0.98426507746094    2.22989264313456   -3.01908901351285
C        -0.71020593824102    4.34823873142285   -2.86139467351573
H        -1.75223128856394    4.57537779791027   -3.03312876886893
C         0.19646549526020    5.37017819403688   -2.63525419342924
H        -0.13957218522446    6.39706903935476   -2.62537340572861
C         1.53050867735738    5.08233116868043   -2.40984127660385
H         2.22201952071654    5.88867002775866   -2.21363057421003

