45
CSD_code = OLOZAR | q = 0 | S = 0 | Stoichiometry = C14H26N4Ni | MND = 4
Ni        6.01627421914385    1.54749372054918    3.10079170031808
C         6.97783994036076   -0.75473691818222    4.21213618423752
H         7.10232996447837   -1.71917525043756    3.70464152505589
H         5.92228258767286   -0.63162217651361    4.47389055232516
H         7.55103682853473   -0.78514725740326    5.14596121139423
N         7.39976155049354    0.36555019132711    3.39018816314790
C         8.65133322968181    0.41653732657003    2.97653026531829
C         9.17344402428505    1.48087497842991    2.24679121690479
H        10.22095587931613    1.42379494985360    1.99409588848682
C         8.48558688831308    2.61959988375386    1.80889994916250
N         7.19595475234135    2.80028532171000    1.98751325457453
C         6.60234687444385    3.99474700148191    1.41106929149161
H         6.93464362289570    4.90728353932562    1.92164125690012
H         5.51824713312557    3.92668506714545    1.47521744700503
H         6.86803931705695    4.08472383711676    0.35293511262423
C         9.59851248139647   -0.70550589985728    3.32528209652745
H         9.69914670250536   -0.80164422535186    4.40621978532509
H        10.58175666500120   -0.52220768555554    2.90286528023207
H         9.22646441810694   -1.65363852125624    2.93770419062221
C         9.31186482958840    3.65231144938992    1.07973410632477
H         9.00518876872210    3.71674964832323    0.03591679679351
H        10.36594299506348    3.39364246723745    1.11111162934579
H         9.18195472105798    4.63607107701188    1.52857210734472
C         5.17662614341776   -0.89606437128173    1.51681035169685
H         4.92992108458541   -1.81075719028961    2.07025982867617
H         6.25727659258459   -0.82596600516558    1.41039677973327
H         4.74845671055424   -0.98351158381413    0.51313122837824
N         4.67879903677390    0.29556498958031    2.18281086648580
C         3.37677182510280    0.47358431937915    2.21011391224856
C         2.76437556705649    1.60995387617383    2.75337514658789
H         1.68996434528703    1.66483701714470    2.66954958958437
C         3.39292966788065    2.67467912087156    3.39314193550277
N         4.69400143881975    2.72830238858765    3.60420943878015
C         5.23759721809846    3.84905461678555    4.35063062044312
H         5.03302373420506    4.81349007909753    3.86977868873239
H         6.32137440876256    3.72804546920909    4.44325047287998
H         4.81808893516545    3.87788446155312    5.36289858738380
C         2.44801735880751   -0.55984097229822    1.61823886731463
H         2.58649360167510   -0.62181534103172    0.53901507034011
H         1.41153168214535   -0.30371183693208    1.81589839628406
H         2.64909751661917   -1.54405161812483    2.03899195910798
C         2.51006416015906    3.79395848315266    3.88868850866633
H         2.57996733734658    3.88762056500051    4.97227222248718
H         1.47308823070768    3.60934596123258    3.62525176391667
H         2.81492501067436    4.74372504647739    3.44987675328955

