43
CSD_code = OLUBED | q = 0 | S = 0 | Stoichiometry = C14H22O3Si3W | MND = 9
W         2.31473056889430   11.45853942978730    2.18860099365099
C         3.84184216294571   12.63938261552703    1.81256319549730
O         4.75625042756684   13.30021148166135    1.56353899399197
C         4.01353000584576   10.53610828438645    2.54356861163927
O         5.03685750193449   10.06307101997038    2.81501290827470
C         2.56757091474111   11.67310418269820    0.24465116978212
O         2.73513229874693   11.88756569819879   -0.88007730356869
C         0.95066390893566   10.87424987224111    3.97414135609698
C         1.60017955883238   12.09180962067097    4.30059556194087
H         2.21567309232920   12.26234963245857    5.17490085729103
C         1.14783503380980   13.09970976847638    3.41393754037463
H         1.38625417925827   14.15368145392358    3.47898529605987
C         0.22875245126819   12.51892980705173    2.51409520115628
H        -0.38855570418140   13.05763413236121    1.80428015887985
C         0.10727566300267   11.14912059504068    2.85555444985614
H        -0.65208608630684   10.47628118532842    2.47491722262833
Si        1.99559754321590    9.12148001145577    1.09327821943936
C         3.46893956844999    8.38361297643580    0.10100428452646
H         3.22454206526324    7.39987477013967   -0.28851133199621
H         4.35104382757602    8.28210049639593    0.72427401566092
H         3.73696272394731    9.01410692434581   -0.74227240558382
C         0.54373813614256    9.10360953910167   -0.17831456073205
H         0.78970582695422    9.67581492472930   -1.06843592756935
H        -0.37402177681695    9.51573663348439    0.22968496045380
H         0.32981633679208    8.08675496395113   -0.49371236861476
Si        1.50985065734051    7.72333009602408    2.99001400538140
C         2.98979006227086    6.57002308265828    3.36067162918882
H         2.80821581524662    5.94999695955100    4.23378966689575
H         3.89116286404628    7.14510942305704    3.54644238263953
H         3.19166707576994    5.90662975576132    2.52537585690470
C        -0.00054987275535    6.58824367657379    2.66531488686651
H         0.18657120866802    5.91756577449184    1.83252189202480
H        -0.88980041349978    7.16264752339563    2.42646730195911
H        -0.23082181826276    5.97526610011074    3.53140370170106
Si        1.10489903407460    9.18468495583956    4.81453021886777
C         2.56097502548238    9.31748452104941    6.04523601516854
H         2.36496770210461   10.03079242312443    6.84128489525701
H         3.46954944310408    9.62805687866636    5.53600871626245
H         2.75970339626142    8.35809573597933    6.51117462489498
C        -0.51122114057888    8.90354768772995    5.80288762583485
H        -0.48054190539022    7.94744991192216    6.31513087444782
H        -1.37667014538376    8.89465264699607    5.14743578501349
H        -0.67457721765008    9.67358282724781    6.55244882155554

