100
CSD_code = OLUCOP | q = 0 | S = 0 | Stoichiometry = C39H40ClN8O9P2Re | MND = 6
C         0.21722381652097   33.01753818294616    2.38842177901636
C         0.53425965307314   32.61359112329831   -0.32571892266422
C        -2.10700969957749   32.61464953595305    0.77479613723863
C        -1.18868629600015   34.72255563129035   -2.12399073888088
H        -0.90108081596545   33.70911764646160   -2.37280329021007
C        -1.44136436618664   35.63943375134364   -3.12150857542170
H        -1.35190817273168   35.37569964737480   -4.16209421233461
C        -1.81504774710312   36.93732311410927   -2.76606909980215
C        -1.92068512064120   37.22944378485737   -1.41037341454008
H        -2.21957731232587   38.21675195625627   -1.10071048941183
C        -1.63944117823012   36.25077823786835   -0.46454487397524
C        -1.74546798356209   36.48724080596625    0.98202989868002
C        -2.03723070793167   37.73271314186481    1.52401176020104
H        -2.16396693955370   38.59005923751239    0.88457446412135
C        -2.14773873379493   37.88220190061947    2.90232790111948
C        -1.99296977680570   36.74267328145132    3.69342563146178
H        -2.09024228219974   36.81615998445510    4.76373137206998
C        -1.69072914634437   35.54521433496985    3.08043242568713
H        -1.54764426888013   34.64933217277873    3.67091527723368
C        -2.41663060354860   39.17053640542655    3.50342371170461
C        -2.08751838796269   37.92844186660080   -3.78381612252055
C        -2.42321734337966   39.26822413641967   -3.67384253934564
H        -2.57735356872253   39.90101900731852   -2.82731638128642
C        -2.38566392972127   40.43952149323120    2.94972075986524
H        -2.16793915342618   40.78627203940693    1.96321986972666
C        -2.90221613200529   40.96347280288782   -5.43037651208094
C        -3.29763749083003   41.09124101665871   -6.75873803005329
H        -3.32749893610953   40.21028163872319   -7.37951811550417
C        -3.64566357471747   42.33136880788709   -7.25326926070786
H        -3.96775218730773   42.42778470414539   -8.27822028328572
C        -3.60655633211113   43.45948954810032   -6.43928089818702
C        -3.20610939908428   43.31963084419057   -5.11646387493104
H        -3.17570180126234   44.18649579979058   -4.47379043804911
C        -2.84873112352433   42.08419230840081   -4.61002151545908
H        -2.52419159932246   42.00503684109123   -3.58408186050927
C        -3.40420010118813   46.88956704643219    3.91791879272249
H        -2.50969371817927   47.43477793019165    3.61530975900498
H        -3.77640637920233   47.27477856333579    4.86540767015656
C        -3.16210225872590   45.42118634707354    3.97990490305787
C        -2.41918821215268   44.80200617607484    2.98097325460568
H        -1.97679833362803   45.40215657332070    2.20158148319493
C        -2.25680372948646   43.43096615927684    2.96781244318698
H        -1.66630837046992   42.97225850448931    2.19026174402656
C        -2.84421202632235   42.65890463003178    3.96452170357320
C        -3.57152601702319   43.26805444976998    4.98089805203716
H        -4.00457243715259   42.65186218745167    5.75264628984515
C        -3.72949317781565   44.64006683772397    4.98004336803615
H        -4.30703970279354   45.10925118997374    5.76246896457394
C        -4.07200372071675   44.77469446295137   -6.96062213049565
H        -3.74886188944405   44.94256365703757   -7.98723000454182
H        -3.75316091084753   45.60311059101564   -6.33161774781447
C        -5.45011803561173   49.48564326835389    3.56387184829864
H        -5.89215625116965   48.82559960532516    4.31628223799879
H        -6.24123175818555   50.11071911628262    3.13826266059556
C        -6.99094309658507   46.48012139009693   -8.51276237825383
H        -7.57356961135407   47.39395182584132   -8.36927908932741
H        -7.65818534717198   45.65883913206194   -8.79241988631406
C        -6.81001201144705   45.65455180096117    2.52329704376114
H        -7.82677094502278   45.79450331481160    2.90097604529211
H        -6.76963357508216   45.93808122557130    1.46775423359898
C        -6.59840852433051   42.38647409322368   -4.45406534879372
H        -7.37712437719477   41.74532077630938   -4.05006868098696
H        -5.83513333913129   42.54677181961199   -3.69672192262197
H        -6.14333743847686   41.89947086563158   -5.31346979635453
C        -7.19668075871160   43.71566329444674   -4.88383349370667
H        -7.93723892329461   43.55008431117587   -5.67143660319144
H        -7.66949632422908   44.22510234463130   -4.03954620292439
C        -6.36010644328015   44.21321279121705    2.68609737720877
H        -7.03331751709063   43.55586016443278    2.14263024226299
H        -6.35566160517881   43.93257802734597    3.73635233604741
H        -5.35349232704278   44.10393573871480    2.28966388305896
C        -5.93215504403108   46.67002675529297   -9.58549532601667
H        -6.39980562062265   46.98687346419363  -10.51371243666245
H        -5.41534261764739   45.72788223809943   -9.75536742253110
H        -5.21096800422038   47.42246530907675   -9.27508659859660
C        -4.36756764953835   50.36348720668707    4.17259878448521
H        -4.80331582047858   51.00596808251864    4.93311480563134
H        -3.92020583628995   50.98324537301372    3.40009708412484
H        -3.58561461978689   49.76003681913802    4.62636617907728
N        -1.27601769612058   35.00639081943634   -0.82563716863394
N        -1.54902895047954   35.40902724864917    1.76358705723813
N        -2.56203507104967   39.69205455744181   -4.95075127693614
N        -2.32693263025808   38.67158587600466   -5.78424065628271
N        -2.04530641388140   37.63584104168073   -5.11033159893191
N        -2.76096248765165   39.31278048827502    4.81009250562267
N        -2.94182654275766   40.54047426207269    5.07158974250925
N        -2.71707090508120   41.26457181755591    3.96882461943880
O         0.72022815102983   32.66289825704001    3.35312634211455
O         1.23198706719935   32.01517067291880   -1.00694124059122
O        -3.03981784375396   31.94298629478805    0.76847895316037
O        -6.40899551960720   46.19958698202249   -7.24772176956546
O        -6.56845344118761   43.67896209837110   -7.75246602937465
O        -6.17795023734674   44.59035143154011   -5.35766496909350
O        -4.34335189871984   46.59253380200611    1.27493381126181
O        -4.93613300974311   48.71377577572048    2.48446517580415
O        -5.99118638507803   46.53766918790762    3.28200351576356
P        -5.91107515355932   44.69984705006384   -6.93205351774731
P        -4.65946257067064   47.14128058257840    2.58768766382379
Cl        1.18473198718743   35.41519791742421    0.73365919480151
Re       -0.56248739984567   33.79125164454377    0.77649998628333

