52
CSD_code = OLUDEG | q = 0 | S = 0 | Stoichiometry = C27H18N3O3Rh | MND = 6
Rh        6.88376205181478    6.30871168132777    4.02949953472884
O         7.12468898091446    4.40852539326762    3.42992043533358
O         8.89362935602579    6.40309220354469    4.25429995491803
O         4.85073284246930    6.29021628277557    3.86419459581605
N         6.95584976769849    6.68403895588424    2.07481839015545
N         6.94776264976157    5.73198804388062    5.92520474856762
N         6.54747903029017    8.18785506942818    4.61104196165165
C         7.19763880242347    4.33249245013302    2.14257128084541
C         7.35935059316472    3.13405207976992    1.44372055886220
H         7.42941172331932    2.21460352919605    2.00307025117313
C         7.42628044529314    3.12671007733520    0.05596331036094
H         7.55051409912186    2.17953034630716   -0.44957854511971
C         7.33880204622209    4.28069090743652   -0.69161198385576
H         7.39227038516889    4.24984796823990   -1.76882991420635
C         7.17831906298513    5.51562055844110   -0.04773696025536
C         7.07748712418076    6.75871450334444   -0.70734657233146
H         7.12334672221433    6.79192670999560   -1.78625630694213
C         6.92255451289842    7.90188239431401    0.02947910694430
H         6.84173532275595    8.86733456233800   -0.44554025924962
C         6.86489436294684    7.82776505892840    1.42791391944477
H         6.73942100633756    8.73082002591434    2.01153106019818
C         7.10984008151263    5.53723143633771    1.37112622986923
C         9.24449341227394    5.97840843695110    5.42745781478045
C        10.56899323504252    5.87872003769534    5.85401259996800
H        11.35744175947200    6.14813320930737    5.16891233188056
C        10.86750282372097    5.42913320098673    7.13594529104376
H        11.90557883458929    5.36207045777200    7.42895140842419
C         9.89054729403019    5.06579228489458    8.03543841206176
H        10.14781268074467    4.71359451201672    9.02226286625305
C         8.53966056797444    5.14533549526598    7.66479194809091
C         7.45230231522705    4.78942909416530    8.49132852964410
H         7.64419624147269    4.42342801227693    9.48960501627595
C         6.17409145578419    4.90545263677631    8.01422939498633
H         5.32454514335346    4.63270519809017    8.62066645276987
C         5.95455398550278    5.38618839721680    6.71565467511329
H         4.95113071718535    5.48354247401304    6.32274914439806
C         8.22407322746234    5.61034048107721    6.36234630368983
C         4.34722711930750    7.43692921288704    4.18632763032920
C         2.97963036016851    7.72057278899806    4.16332285482508
H         2.29631793209794    6.94645910979752    3.85181358206078
C         2.50991470588364    8.97511116937535    4.53276723040108
H         1.44503218135362    9.15610130781651    4.50138362098605
C         3.35158713211197    9.98885355265143    4.93561363201225
H         2.96226484434228   10.95447201129536    5.21815174694166
C         4.73523020677644    9.76679473015394    4.97918813363321
C         5.69591640768554   10.72507067409539    5.37010261270412
H         5.36886562258948   11.71134616589225    5.66557477351575
C         7.02412000351315   10.39157468732081    5.36745801231658
H         7.77978559038381   11.10360692682086    5.66019445363678
C         7.41954153678001    9.10392483060017    4.97961326714457
H         8.46443277179179    8.82429841293803    4.96266158641045
C         5.22613892185882    8.48916025271117    4.60361987679214

