53
CSD_code = OLUGEI | q = 0 | S = 0 | Stoichiometry = C23H23N3O3Pd | MND = 4
C         3.72211530666940    1.81310204430668   -1.17123837624528
C         4.03675662461402    0.62160748536368   -3.02346145835610
H         4.20092975240336    0.44687381346118   -4.06724100335038
C         3.87253267531204   -0.24923488092260   -1.99723318115793
H         3.87911608450431   -1.32000451837400   -1.98688045850105
C         3.56249424955549    0.03648324146129    0.49400440847727
H         4.31824656424690    0.56208975923558    1.10089157906644
H         3.75445589837953   -1.03765888400914    0.52586732366797
C         2.20722046541631    0.35142319527373    1.09595570564889
C         1.39942254640484   -0.64592860856782    1.62004358535048
H         1.70232217222705   -1.68006389050920    1.57117388454782
C         0.20251558283793   -0.28314630379343    2.22081295553704
H        -0.44281247747103   -1.03625957211495    2.64723718512905
C        -0.14675730140155    1.05265585981925    2.27032739405285
H        -1.06257841304501    1.36907482249397    2.74370048214745
C         0.70538384365773    1.99649074378404    1.70146597972630
C         0.41537693808048    3.45791315809803    1.72228085543809
H         0.91965392066245    3.89073749126556    2.59150494650407
H        -0.64968228848980    3.66180115770793    1.78974996338448
H         0.83519087259513    3.92477219231588    0.81692739531663
C         4.17406118729028    3.11659528946234   -3.15995722175728
C         3.12670620412921    4.01892501650351   -3.34588262726450
C         3.38831575194766    5.20311132459095   -4.02085483039197
H         2.58306241713862    5.90670809027109   -4.17599517970410
C         4.65876431652768    5.50648217542135   -4.48614102815641
C         5.69424857631419    4.61895061752507   -4.22580747647581
H         6.69703473475425    4.87010509425223   -4.53948833913064
C         5.47830814246182    3.42795583793607   -3.55097722967072
C         1.76609249312775    3.74983730907162   -2.77585898481794
H         1.43424428878825    2.73485661580337   -2.99087786262514
H         1.03686446321363    4.45440434037460   -3.16626472871188
H         1.81547833803220    3.86677134796404   -1.67364449842293
C         4.92940249001354    6.78939521122904   -5.21103938036764
H         5.40764318756729    7.50242751232065   -4.53943088563598
H         4.00749603416333    7.23264493907729   -5.57865932433514
H         5.60087895243888    6.62194741380186   -6.05056532447874
C         6.62285895388014    2.54657463466182   -3.16071215884230
H         6.73222152695101    2.58464049373937   -2.07457695243402
H         7.54694619310686    2.89789482598849   -3.61086364585303
H         6.46378410826831    1.50981637012055   -3.45067884055384
C         5.38244752987213    3.95952198496738    0.78023971745901
C         4.44758974291131    4.97975439492994    0.30433806833038
C         3.46038092037840    5.11391858033856    1.29368677756191
C         3.79609584993023    4.19687331035203    2.36793686411391
N         3.93960057775606    1.88197748829663   -2.49116177246428
N         3.68905188015125    0.50446240956156   -0.86732080276483
N         1.84988027978440    1.63226932500968    1.13153879356542
O         6.37500546273067    3.49946911581370    0.25965070034311
O         5.01476296303043    3.58758723044142    2.07247067271953
O         3.20785355661527    3.95325090139586    3.40036650202919
Pd        3.23103632560965    3.29193570424471    0.21634060777343
H         4.66322274463392    5.62845929049028   -0.53458601027831
H         2.73765678955962    5.91144749826840    1.40788723479253

