43
CSD_code = OLUGUY | q = 1 | S = 0 | Stoichiometry = C21H15ClN5Pt(1+) | MND = 4
Pt        5.53677095156913    6.12481103359740    0.87060613620356
Cl        6.12152627230316    8.26114380996207    0.98115151091856
N         3.56384013172927    4.80705278502355   -0.66575894875633
N         3.16365133047972    6.89469226911200   -1.06983308580779
N         5.18763913766624    4.24123652150013    0.75682461042792
N         7.03836474783324    5.45698106277616    2.17807046328113
N         1.10650164898780    9.39849265724107   -0.27204945670974
C         3.98495897768974    6.09350645938507   -0.39690990899159
C         2.23614367405844    6.15360880426743   -1.75444786408512
H         1.47677270745090    6.61288250328375   -2.35381124958054
C         2.48384425147102    4.84408592153799   -1.51055701930604
H         1.98555313506984    3.96624511355229   -1.86543791156541
C         4.24138030869647    3.76205922697598   -0.04454388506819
C         4.05124685319205    2.38159849669345   -0.16470743845591
H         3.28315253973133    1.98851880990386   -0.81010037538413
C         4.86904430308307    1.53162794460833    0.55558919041303
H         4.73468707630572    0.46429239739791    0.47575288626174
C         5.88827394596506    2.03981834791701    1.38899904464111
C         6.00549609592891    3.43897233297985    1.44728781370165
C         7.00162544914173    4.09831634974512    2.22028302967266
C         7.89874781185497    3.31520565084175    2.97059334449582
C         8.87192935649615    4.00526400023295    3.71656660578476
H         9.58540367957748    3.45558332581598    4.31121823476409
C         8.89484386486110    5.38046940118811    3.66893117417126
H         9.62733973365679    5.94039503842173    4.22761958624240
C         7.96399306235343    6.07360897099640    2.88580956337450
H         7.97645387838893    7.15482960956017    2.83370394928589
C         6.81071106209141    1.28054983775994    2.16552987551092
H         6.74025319036612    0.20427536241003    2.14291571205006
C         7.76371132014519    1.89403608347431    2.91805311900284
H         8.45574095822172    1.30469015913773    3.50006467500729
C         3.14868352803412    8.33416347109167   -0.97143056635010
H         2.81185099175884    8.76454265983966   -1.91516549476754
H         4.15956384023400    8.67605229238102   -0.73246646588176
C         2.19057770799055    8.75366316982417    0.12566900226317
C         2.44632241919431    8.44278100995879    1.45508314997458
H         3.34481208222246    7.89966604615674    1.73200389684883
C         1.53231014515389    8.85974496238300    2.40938357966089
H         1.69718172153373    8.64848072885293    3.45517914937277
C         0.40633700361281    9.55720266526761    1.99795281341460
H        -0.32427138274636    9.90410530561006    2.71063722782856
C         0.23894593234704    9.79718900379892    0.64215326441111
H        -0.62361544568497   10.32755839752503    0.26398706172576

