100
CSD_code = OLUGEH | q = 0 | S = 0 | Stoichiometry = C51H42N2O2P2Ru | MND = 6
Ru        3.46777971829737    2.83043269401993    3.96351971041036
P         3.72572580439655    0.56240721805447    4.23948904290225
P         2.96728091435446    5.03543341607094    3.55125649577754
O         6.42550223171175    3.24596333389031    3.62583783436837
O         2.75884222188914    2.41247150135984    1.88840109492968
N         1.56305888696481    2.54834956295958    4.25541244470872
N         1.03978795070092    2.62906298260785    5.41038651542316
C         5.28577868528948    3.09061829391220    3.74221787945752
C         1.49656629185587    2.19597042077646    1.93585938150405
C         0.73731210483202    1.89220519470417    0.78138799558593
H         1.25044723282000    1.84246100108049   -0.16782679182459
C        -0.61044315430777    1.66853787890391    0.87228397927887
H        -1.16930593268426    1.43760420057958   -0.02500419610348
C        -1.30028016079105    1.72802631521643    2.09410350622160
C        -0.59211954071145    2.02041531243082    3.23416399936450
H        -1.07233012780081    2.07886237527276    4.20014721338803
C         0.78542672044007    2.25217021218514    3.17164406402628
C         1.96745229832844    2.94167780164928    6.37923763522160
C         1.53703947135946    3.07306648558242    7.70898089170925
C         2.47975803828261    3.39550649991611    8.66796551893759
H         2.17621343059783    3.50385211629281    9.70012068091382
C         3.80727936173585    3.58205248477425    8.31531287783080
H         4.53117530347843    3.83585681909367    9.07727892597761
C         4.21810276475063    3.44766314270330    6.99728161857526
H         5.26314356972572    3.60186746095844    6.76250853356701
C         3.31860871925406    3.12388968311393    5.99399503971105
C        -2.77773177716068    1.47411138111678    2.13012110175945
H        -3.15563236008236    1.54855661438016    3.14660415769447
H        -3.00425932824150    0.47939885875394    1.74636503301704
H        -3.30543889517407    2.19787060434104    1.50891712612472
C         0.09422763232771    2.86277259144902    8.05019389764436
H        -0.08801060596886    3.06480641307289    9.10335859096951
H        -0.19803046456442    1.83658083601330    7.83040708425978
H        -0.53442320861057    3.51392643928256    7.44513108709001
C         4.78887919183514   -0.29524760869144    3.02980407974795
C         5.19193626314848    0.36836126144883    1.87722696317880
H         4.85343973040076    1.38151534346163    1.70377189523956
C         5.99649407168337   -0.27399349408331    0.95234314250733
H         6.30755528670395    0.24476751267162    0.05737913334433
C         6.40307800623897   -1.57873048591306    1.17451643569652
H         7.03506977178421   -2.07884464445130    0.45523121656599
C         5.99753558391417   -2.24597020503245    2.32007783747719
H         6.31169824492161   -3.26535010945722    2.49170820887579
C         5.19298668007148   -1.61000955350565    3.24648689081609
H         4.87915957035289   -2.12955360336932    4.14126271836570
C         4.45119146929413   -0.06282223424437    5.79147780948585
C         5.57233210543629    0.62132139223263    6.25167386680874
H         5.92508514673116    1.47690170680641    5.69082460114737
C         6.21943605825633    0.21225078066010    7.40124867050089
H         7.08642600575686    0.75078781537778    7.75412987524585
C         5.75247352472509   -0.88857624655950    8.10148919247913
H         6.25042525845403   -1.20702713625960    9.00544365075696
C         4.64964729126618   -1.58510277909053    7.63768536120204
H         4.29174551647673   -2.45130592143024    8.17560948799746
C         4.00061464683315   -1.18078899231475    6.48370712719520
H         3.14589685729373   -1.73851332470998    6.12659815616657
C         2.15831535440221   -0.34543856593244    4.07751854552199
C         1.77165900405778   -0.86636070966860    2.84656282454241
H         2.46156645928652   -0.84134006931421    2.01377169050562
C         0.50620872174759   -1.40155879108641    2.68794870708326
H         0.20942012182677   -1.79889585686086    1.72851692378343
C        -0.38140083022494   -1.41405981563862    3.75026345249965
H        -1.37191557545926   -1.82474790028890    3.62172334498487
C        -0.00424499575168   -0.88939658204596    4.97621737912577
H        -0.70007372700835   -0.89103235005448    5.80266652745522
C         1.25659483245841   -0.34908657553359    5.14166888011717
H         1.54574556928303    0.08609505466916    6.09028129021262
C         3.70472782639079    5.79136127037539    2.06377918224219
C         3.54046890332387    7.15204588380036    1.81618165742350
H         2.97068442734820    7.75898611537516    2.50637848148019
C         4.10654164057945    7.72204161636509    0.69213128312187
H         3.97853299020687    8.77794716761739    0.50240527301179
C         4.83892083826679    6.94220185036208   -0.19007936860705
H         5.28239918103848    7.39267427991203   -1.06605532748165
C         4.99925952181851    5.58835694109564    0.05055778385644
H         5.56578317400377    4.97981594426128   -0.63904544878815
C         4.43472338273045    5.01221968994487    1.17553225559605
H         4.53923150202336    3.95180267782608    1.36390988573640
C         3.42398513209626    6.29835969532954    4.78559439909185
C         4.70300512566209    6.18490318163810    5.32208358142748
H         5.32745592624464    5.35911503489926    5.00686930375495
C         5.16285194025046    7.11076263529195    6.23805990522961
H         6.15548899666048    7.01428444858813    6.65242115420622
C         4.34744394939082    8.16199214886291    6.62567420328392
H         4.70006753668747    8.88376567649335    7.34762055608302
C         3.08080972295414    8.29001209297050    6.08205360152503
H         2.44751116578652    9.11521866194171    6.37475947851205
C         2.61798369152636    7.36673808535728    5.16036258281407
H         1.62942115025533    7.48195990632375    4.73785862415659
C         1.19076537532752    5.30225699937243    3.27174212037270
C         0.32437861581023    5.32936741569018    4.36452739772693
H         0.72897883139484    5.31466385492184    5.36911219472600
C        -1.04206468611303    5.35733363775938    4.16136000877466
H        -1.71045331335869    5.37894722171429    5.00994806345594
C        -1.55487757799089    5.34272402263375    2.87395529799266
H        -2.62374241180141    5.35269198230005    2.71960235347942
C        -0.69875611894049    5.30398718094768    1.78662598309181
H        -1.09713168939447    5.28026760049296    0.78302277262788
C         0.67029681990421    5.27936818007323    1.98143355052964
H         1.34112341637825    5.23203144126022    1.13412135274910

