63
CSD_code = OLUJUA | q = 1 | S = 0 | Stoichiometry = C19H31N7NiO4P(1+) | MND = 6
Ni        0.56681687026042   10.69589016704595   13.16821820914523
P         2.19351246543459   10.37490011743700   10.10489011303346
N         1.70768560562058    9.24823547954638   12.69409542830854
N         2.65625573958809    7.28797610268176   12.54122083793322
H         2.96541243511850    6.36206667925752   12.79296959277651
N         1.74100031933847   11.99474208738783   12.42580823486098
N         2.74172457666303   13.86193547848319   11.89892692089524
H         3.07365153251947   14.81138971405301   11.96628529875775
N        -0.46659841048844   10.54891292950531   11.05561729760771
N        -1.67263767646686   10.37197253987303    9.23390626531314
H        -2.48100834563484   10.33199643483207    8.63388574486920
N        -1.28926252670465   10.81952497635298   14.33754875210571
O         1.64335210955057   10.90167268998741   15.37489593215210
H         2.60635134697257   10.90690340097989   15.34462981511597
O        -0.74572781277914    9.73226129626119   14.04964366583926
O        -0.73526166161856   11.82924353249995   13.85506000033925
O        -2.26365893793079   10.88697826392266   15.01829590164427
C         1.94793206519454    8.11571299518000   13.33442063147199
C         2.87238681941871    7.90966988430771   11.35130876482078
H         3.41436906262418    7.46217705929297   10.54437999122177
C         2.27620358858807    9.13615507249149   11.44579824802003
C         1.51975947900430    7.73202727183946   14.71160770279489
H         1.10146979498307    8.62247272701299   15.18269808842685
C         0.41353562674259    6.67527236307577   14.62952377220673
H         0.76295044472352    5.77255213253618   14.13320419992730
H        -0.43744724338992    7.07242215949291   14.08378448293610
H         0.08615058035621    6.41109458851018   15.63080579592284
C         2.70765336998242    7.22735509592548   15.53495320940946
H         3.06948617730143    6.27083922988268   15.16433306082757
H         2.40115967169668    7.08511265624385   16.56746621209275
H         3.52978652797128    7.93939116293344   15.51418543901526
C         2.00742670168592   13.22505243541741   12.83234205294436
C         2.94651785145964   13.01255571637800   10.85684135168039
H         3.50438996227206   13.27832780684235    9.98317588323792
C         2.31732656946281   11.84421204355315   11.18491426881666
C         1.57075707371361   13.88594973664189   14.09699338974100
H         1.15005597837697   13.11232740483974   14.74077546769170
C         0.46092927350029   14.89560212767386   13.78532749536980
H         0.81177754472632   15.67428835997087   13.11155390542382
H         0.12478808253231   15.36375215321503   14.70586673060325
H        -0.38345545124691   14.38622393939142   13.32992725065289
C         2.74939137287718   14.55826746886812   14.80515699409178
H         3.57667411742087   13.86422036206800   14.93708315368983
H         2.43421032479518   14.90816883372012   15.78417042831220
H         3.10710591296177   15.42109688016599   14.24758949757557
C        -1.69025351656189   10.53398405631239   10.57782676103510
C        -0.37389488705874   10.28609740808196    8.83819262005148
H        -0.07964861004067   10.15954583249589    7.81737548825006
C         0.37365557666780   10.39623053510343    9.97924951725105
C        -2.94435845336112   10.63833617996771   11.38288925282326
H        -2.75164767570258   11.34186715624201   12.19870972759636
C        -4.11475409273140   11.17025348612961   10.55669673171615
H        -3.85575813101863   12.10715886122093   10.06765582895232
H        -4.96240443774483   11.35382073084540   11.21104567965959
H        -4.42984606666934   10.44780697702427    9.80585222009872
C        -3.28050883129090    9.26465152754896   11.97859662701884
H        -3.54662026494467    8.56388285478473   11.19009462101037
H        -4.11992529344156    9.35330657546759   12.66256746259774
H        -2.42965292641933    8.86187123806653   12.52298354214185
C         1.23730768111571   11.03061052462471   16.73211090634548
H         0.14935002927138   11.01562478413285   16.75809812645675
H         1.58732852634968   11.97449340472109   17.15766476543314
H         1.61613246441461   10.20105630963147   17.33430464193982

