57
CSD_code = OLUKUC | q = 0 | S = 0 | Stoichiometry = C26H22N4O4Pd | MND = 4
Pd       -0.00011864499768    9.40056634898980   -0.00100547064991
O        -0.64605094598723    8.54959341286662    1.71432974844603
O        -0.27446434219122   13.09421088090782   -2.89339467442566
N        -1.98634992355207    9.56421103879385   -0.34775096921914
N        -1.93399293447507   11.26163223752196   -1.90948080074831
C        -1.92425375912931    8.26736610970398    1.63980279150220
C        -2.56629447928708    7.50721950057633    2.62605482429611
H        -1.98197984457358    7.15876304289069    3.46360017000046
C        -3.90677093087830    7.20441237146064    2.51233897037015
H        -4.38529907704229    6.60633386347659    3.27471245592655
C        -4.64457024377632    7.64577858541626    1.42333178772761
H        -5.68708900590191    7.38173153799064    1.33049266600248
C        -4.04318948935230    8.42429175846243    0.45088010199427
H        -4.62038975275159    8.74384172815527   -0.40527479896604
C        -2.69750050851972    8.75346715154865    0.55653686329932
H        -0.90544076637773   11.16367585390091   -1.93782697026051
H         0.24285541947636   13.79156651489101   -3.31028703436374
C        -2.59014428990146   10.45792602463321   -1.06608417363144
H        -3.66741477232503   10.59551070395591   -0.98852395788692
C        -2.47615849725074   12.25231323804104   -2.71215162740556
C        -3.82488753429989   12.34770446929493   -3.03841796442388
H        -4.52256730243970   11.61462932493003   -2.66591824608465
C        -4.28534916621805   13.36681320785621   -3.85469052596505
H        -5.33571603649583   13.42248844991463   -4.09515973216003
C        -3.40591722594079   14.30258803028918   -4.36504697302201
H        -3.76116401263071   15.09611546574149   -5.00365191858900
C        -2.05687533869509   14.21969629378651   -4.05671574153923
H        -1.36248020617282   14.94909986257598   -4.45188364702004
C        -1.58614345597448   13.20977314121838   -3.23683409207372
O         0.64582492889266   10.25375802908411   -1.71518521348998
O         0.27439810857216    5.71143041133621    2.89582440397339
N         1.98609832582375    9.23935229829007    0.34722780098165
N         1.93412000914963    7.54227826360148    1.90937615334275
C         1.92399300178405   10.53605696343804   -1.64052124777566
C         2.56600505915513   11.29626862576569   -2.62673284040249
H         1.98170695281708   11.64466184227360   -3.46432308653757
C         3.90643690298956   11.59922367456855   -2.51295957706528
H         4.38491959143231   12.19741300230810   -3.27527373292785
C         4.64421495952077   11.15791456506063   -1.42392234604624
H         5.68668619516587   11.42211627833359   -1.33099664655365
C         4.04286285014833   10.37932679580761   -0.45150886933010
H         4.62007806081558   10.05984959111530    0.40466326302665
C         2.69720387256319   10.05001813923169   -0.55719582987969
H         0.90556523703637    7.64016749176828    1.93789950429149
H        -0.24319982407125    5.01383508353694    3.31349079412088
C         2.59010034597487    8.34604488757401    1.06589917739263
H         3.66737307853347    8.20857679143510    0.98821806174211
C         2.47645421416224    6.55174232580209    2.71208444873988
C         3.82537365721076    6.45579991025165    3.03744012828307
H         4.52322091558086    7.18816196658157    2.66387452890236
C         4.28589495571826    5.43702650569883    3.85419477398816
H         5.33644790192570    5.38081919517794    4.09369687597674
C         3.40631933452628    4.50221416233144    4.36611155199898
H         3.76164636002697    3.70876959093767    5.00466924060159
C         2.05705003921377    4.58575562820256    4.05886452441880
H         1.36260942133299    3.85692343804150    4.45492197816628
C         1.58631261166058    5.59517439265515    3.23818111893064

