31
CSD_code = OLUKEM | q = 0 | S = 0 | Stoichiometry = C14H10Br2N2O2Zn | MND = 4
Zn        3.78384191490304    3.57364397418917    4.45959293593218
Br        3.62166688074640    5.78497918386735    5.18823285745024
Br        3.85768375897399    2.23978712103163    2.52450616065731
O         7.16365614790362    1.39481985345812    5.91025591350215
O         0.78352099615317    1.23319152809033    6.51846278624301
N         5.38907865267960    2.67730828134674    5.58351626892852
N         2.09163141352507    2.66703528949836    5.44994970473672
C         5.89860823382361    2.98587517304005    6.83114146004485
C         5.49995769309639    3.89278222080082    7.80455897204509
H         4.64997986517412    4.53880785310503    7.65938061856368
C         6.26186449321646    3.94081417934374    8.95412401289448
H         5.99105914149345    4.63737617181814    9.73212277766137
C         7.37687305197985    3.12069448960814    9.13954692677341
H         7.93921235723690    3.20130655336379   10.05678704631303
C         7.78465449665086    2.21338617941816    8.18004247595725
H         8.64613937409145    1.58008178001620    8.31173988702979
C         7.02366207367930    2.16481855748943    7.02559630209140
C         6.17128781421077    1.75743922894027    5.11303617147383
H         6.07268301171218    1.28178738307459    4.15404250936983
C        -0.03550387345816    2.06648527782722    5.81674416361308
C        -1.41506829856477    2.09373605194005    5.71803696915039
H        -2.03039039663327    1.38338631615119    6.24462066223073
C        -1.94723966199604    3.07865594560782    4.90776712399906
H        -3.01844685483504    3.14205656102047    4.79563230249173
C        -1.14078285691785    3.99507851995029    4.22939027577092
H        -1.60959260765819    4.74441624635311    3.61095247054507
C         0.23492783461322    3.96915768812276    4.32675892609851
H         0.85366081697794    4.68186978691606    3.80464963297579
C         0.78379790730729    2.98308307371815    5.13522559044301
C         2.01147161288756    1.65191732947890    6.24585359485997
H         2.84350500700957    1.14022220141782    6.69123250015235

