109
CSD_code = OLUKIP | q = 0 | S = 0 | Stoichiometry = C51H50ClOP3PdS2 | MND = 4
Pd        3.40270362489728   18.95435824545225   16.59646211231154
Cl        1.91281683756350   20.16702818890789   17.80377792610926
S         2.96640873396433   16.97151775581858   17.88502320195591
S         3.64954054153831   20.68344555068764   15.01558603127121
P         4.88662163564014   17.84053640420792   15.38607229730573
P         4.93874021414482   16.90270433400319   18.06973310056516
P         5.63298557823552   20.56559270745239   14.95120733389574
O         4.47215008295193   16.93853237877560   14.11862124911857
C         5.77411520507520   16.76619016941914   16.49369705336135
C         7.11036599715771   16.47215914744937   16.23076122396970
C         7.83455215706079   17.13902529348969   15.23977461613691
H         8.82828773928817   16.77031424485486   15.02144136516418
C         7.47184681956047   18.36460365958263   14.68015773656954
C         6.17031485850813   18.86831256817444   14.73223377728934
C         3.59765483394925   15.83879903347736   14.42591020840460
H         3.51441912773402   15.75980046342025   15.52544127843688
C         4.25641637750997   14.56717765248604   13.90560538870915
H         5.27734000656826   14.51847565423180   14.29332744519591
H         4.31731431301390   14.61596630384442   12.81651354293265
C         3.45628863630456   13.33955716033987   14.33415558941422
H         3.43546093573742   13.30552164125843   15.43016084240393
C         2.02408850335671   13.48705887397701   13.82530995931544
H         2.03148665318114   13.47677788551213   12.73274464397496
H         1.42468073909561   12.63837679610552   14.16146504679933
C         1.38409542644125   14.78399842445603   14.31543964551344
H         1.32897299100769   14.77529773493548   15.40641173784486
H         0.36950603858658   14.83730938949224   13.92387635286149
C         2.17963008625000   16.01540056940764   13.86361740382639
H         2.24126880500000   16.00420359272100   12.76951594531008
C         4.10298657484461   12.05829170436830   13.81757867515016
H         3.54026955184773   11.18742530103366   14.14588521829116
H         5.12279556952595   11.96846089831489   14.18551597722337
H         4.13025573558671   12.05858353213699   12.73013808793504
C         1.54635111714159   17.36368816385443   14.29219219418286
H         1.96589678187884   17.67515215668082   15.28037298545630
C         0.02914381009294   17.31634770237071   14.47640140142767
H        -0.32039736538930   18.31419651162029   14.73288424396020
H        -0.25686614840255   16.64928719724321   15.28434363235939
H        -0.46782837225694   17.00528729198968   13.55900193432725
C         1.87209669178643   18.44522309731546   13.25893793058802
H         1.37614895476133   18.22252005070156   12.31471687553738
H         2.94369215149743   18.50855925728704   13.08043101294689
H         1.52590984330990   19.41561668487702   13.61298283001897
C         5.36580530563973   15.54820425227313   19.19959868734904
C         4.58938270922907   14.39674619636324   19.12863120973274
H         3.75672073625659   14.36350786535150   18.43876775993756
C         4.87750439487697   13.31943950532828   19.94369984524152
H         4.27369477190270   12.42581097969239   19.88898215703736
C         5.93875644599936   13.38967134612141   20.83174465254738
H         6.16554262236428   12.54807100256583   21.46913585558581
C         6.70460520668122   14.54089312194799   20.91027776843390
H         7.52634017045211   14.59792778425422   21.60856008650487
C         6.42054479629427   15.62391120959937   20.09900930246424
H         7.01596794617956   16.52303490937827   20.16468174518823
C         5.53918487122059   18.41192854661580   18.90301125761036
C         4.65150822730101   19.15757472515741   19.67616774935401
H         3.58745905676693   18.94236571891601   19.65729486109963
C         5.14506198408286   20.15227639841358   20.50233043732038
H         4.46169592212834   20.71906794473776   21.11620084558169
C         6.50623660651103   20.40439172110874   20.55256898493323
H         6.89088691703987   21.15871291959749   21.22282064507717
C         7.38061320276520   19.69741375704543   19.74133009541346
H         8.43851086299740   19.91518404762190   19.76470066787861
C         6.90193881881313   18.70070122561835   18.91312497970047
H         7.57304143548266   18.13430334736163   18.28058944002381
C         7.77647330672828   15.42493393538266   17.02132833319646
C         7.15577159914300   14.18880775390852   17.18138424782805
H         6.20101792786336   14.01245123549423   16.70554398230139
C         7.76196314681580   13.19018620353664   17.91878394267651
H         7.27364604926289   12.23332512622819   18.02905655937947
C         8.99037730914599   13.41665782928975   18.51607188005917
H         9.46077394658393   12.63866478605806   19.09862423048308
C         9.61762085068559   14.64095373527936   18.35854579184066
H        10.57773508233517   14.82018280382875   18.82031267147288
C         9.02014234231799   15.63646233690637   17.60843608928432
H         9.51237647470125   16.59156365659979   17.48723092131898
C         8.51706246848441   19.16198993914211   14.01518690602042
C         8.31678702113704   19.63278215753466   12.72172474346261
H         7.41232592166855   19.36204659150006   12.19843398330952
C         9.27677464623756   20.41036270778612   12.10132747586175
H         9.10507949138440   20.77306251531988   11.09869628901848
C        10.45214312461147   20.72224383465882   12.76292587455572
H        11.19912051566967   21.33574120450038   12.28166769111587
C        10.67394921455270   20.23309877924297   14.03999032299778
H        11.59606634763792   20.46260584865857   14.55422969224727
C         9.71634929541745   19.45278175316086   14.66128777401090
H         9.88461474844898   19.07870530324547   15.66179988270403
C         6.32234587105609   21.30779091349995   16.46748198252574
C         7.68474211369344   21.58393967016786   16.55187352597777
H         8.35223325543061   21.23171456155185   15.77742460291836
C         8.16701857903281   22.31895605238258   17.61861886853765
H         9.22165404360441   22.54631361211362   17.67864762567932
C         7.29565657824713   22.78868759763067   18.58881809968146
H         7.67074635638176   23.39972743805399   19.39658271926746
C         5.94982092976706   22.46613729871184   18.53083419074611
H         5.27209670630586   22.81918504762536   19.29278532733385
C         5.45892168517489   21.70810957148532   17.48232071552045
H         4.39885016082757   21.45238092239307   17.44772953324541
C         6.12820220072944   21.62667128548788   13.56643122088803
C         5.61301512392907   21.24675477607032   12.32966160786535
H         4.98702003463982   20.36499869358575   12.27106524957103
C         5.89744964684640   21.99194804277862   11.20345447844414
H         5.49830811463533   21.69672470603080   10.24446962239664
C         6.69511013476971   23.12140988399187   11.30887487250025
H         6.92358601622478   23.70410732919112   10.42884918054493
C         7.18825093268578   23.51124646225835   12.54190480585624
H         7.79643073636669   24.39981457246084   12.62496211941458
C         6.90149575615705   22.77178709548452   13.67685631557569
H         7.27444278642297   23.09036453121023   14.63900796100524

