78
CSD_code = OLUMOY | q = 0 | S = 0 | Stoichiometry = C37H26Cl2F8N2O2Ti | MND = 6
Ti        1.95348597786617   12.00318513255116    4.07796788343492
C         3.05370447881651   10.54214413043805    1.82323988505003
C         3.71298905175317   10.82734194776925    0.59312021450227
C         4.18935256413972    9.76139468308026   -0.14201093157452
H         4.66302602013204    9.93746891838954   -1.09348890705016
C         4.10228451876004    8.43713975507807    0.29899462409587
H         4.48398479450265    7.64472199737417   -0.32556341920432
C         3.58694252107825    8.16233376123411    1.53488342440110
H         3.57533438078355    7.15383556377513    1.92089467137622
C         3.06645551308646    9.20350749044642    2.32709153158721
C         3.93297658039241   12.27526913804718    0.17518673694472
C         4.77013266273000   12.96313601830846    1.26587619972969
H         4.24137481796093   12.98619300027088    2.22000817172906
H         4.98029282445955   13.98946511514091    0.97434181160427
H         5.71479322738073   12.44104935672087    1.40713666533605
C         2.59319252461615   13.00443335700490    0.01769220444917
H         1.94905276268293   12.46965646762758   -0.67778693730859
H         2.76676818645650   14.00683639855704   -0.36669937360099
H         2.08282130968428   13.09504548514724    0.97523950877786
C         4.69352870897213   12.38432336324230   -1.15089356913089
H         5.67322473409846   11.91730199060379   -1.08454799758260
H         4.84219328792902   13.43499522802994   -1.38825581046652
H         4.13194666888493   11.93386775486739   -1.96634927889659
C         2.68040710514388    8.92823959274747    3.66398771194564
H         2.90541431174908    7.91814679205074    4.02243983176571
C         2.02787329180471    9.53116286994335    5.82639892233494
C         0.82390288886449    9.78933121042593    6.49172861094735
C         0.72612402133553    9.79097102608202    7.87306085478137
C         1.85733474496890    9.51149501647908    8.63735474829104
C         3.06100365438712    9.20883787946744    8.00493545991362
C         3.13980739872181    9.20450971881038    6.61704006244178
C        -0.29100322985417   11.45243699204162    2.29962804489120
C        -0.22523164209925   10.07743693480080    2.07152392957338
H        -0.10010869834899    9.40960823034634    2.91398259953219
C        -0.35271904511423    9.58486205105040    0.78694582598356
H        -0.30119396336564    8.51987063738282    0.61592709012715
C        -0.55578481654927   10.44975820935409   -0.27654168483548
H        -0.65935782289705   10.05993692943400   -1.27761948302813
C        -0.62834535245227   11.81360178619103   -0.05039366615105
H        -0.79241625109949   12.49258502801934   -0.87344392070201
C        -0.49038749518407   12.32229671132744    1.22882953144833
H        -0.51359843140863   13.38928948445400    1.40294350352918
C        -0.98352257845943   12.57536932448578    4.28409009134610
C        -2.39534584335094   12.73094880257493    3.71104754687776
C        -0.79955234645520   13.08604574118876    5.57488424409309
H        -1.60961138474906   13.61988309001718    6.03958224316966
C         0.37349751604115   12.84632473643963    6.29187156479210
C         0.51975490341222   13.18780217809317    7.71470840692973
C        -0.54731875568969   13.44203827558724    8.54922740448877
H        -1.55992316040833   13.42477512415971    8.17654706529013
C        -0.34752948054713   13.68811035256216    9.91951918230871
C        -1.42778513597051   13.94462001417293   10.79233515898783
H        -2.42953750752216   13.95316681612547   10.38830802223703
C        -1.20910051123122   14.17860903790519   12.12053181540278
H        -2.03859299022003   14.37560793779391   12.78324850315645
C         0.09618228214344   14.16373368983757   12.63812635427818
H         0.24938815848694   14.34943477817432   13.69085026491921
C         1.16337806416385   13.91538751721587   11.81951706704882
H         2.16872392599394   13.90135144393702   12.21440672381670
C         0.97293252341237   13.67253401438347   10.44507592284543
C         2.05110814800633   13.41001902875511    9.57061484445631
H         3.05415892092682   13.39900251255006    9.97108253213143
C         1.83441807036671   13.17170993306472    8.24729363648785
H         2.65788911993120   12.97441673845525    7.57153080836267
Cl        4.05039181538415   12.01125586391619    4.89746113434953
Cl        1.88089253328826   14.17048509467798    3.63880704383086
F        -0.25481232225394   10.06544141892255    5.73337255861339
F        -0.43582772398923   10.06885591247461    8.46925103354485
F         1.78481000348688    9.52943944347677    9.96920974858832
F         4.13609360098166    8.91958148071921    8.73723383696768
F         4.30119543471851    8.92205336724786    6.02270999322025
F        -2.81597535109013   11.63546974874161    3.06177286321063
F        -2.49340641938950   13.75457625980531    2.84896603333822
F        -3.31055817395076   12.96275622288642    4.66224334142453
N         2.11868761843552    9.77149879079682    4.47099872605094
N        -0.07278889900120   11.93757943956765    3.59976030411811
O         2.47297851790716   11.45998495643147    2.52489363519200
O         1.36042864142331   12.23510775875282    5.75071506312583

