38
CSD_code = OLUNOZ | q = 0 | S = 0 | Stoichiometry = C14H20AuClN2 | MND = 2
Au        5.29933270644554    4.25045219017525    1.63613030469903
Cl        5.24544670696841    5.60085173031637   -0.16297059895121
N         6.32549194201242    3.03421307833101    4.14834032744423
N         4.44890858478776    2.10020383434655    3.66444018546891
C         5.32996088208224    3.03218060811554    3.24453520815298
C         6.08028889468424    2.11738051223640    5.12893365565483
H         6.74620836020371    1.95356202931070    5.95069642481910
C         4.89929463474277    1.52900568702204    4.82440190301072
H         4.37654895363659    0.76237679952022    5.35281770726949
C         7.48036922899947    3.88709901634765    4.09123683608961
H         7.99515157273401    3.76119595779946    3.13846152385710
H         8.15700739460034    3.63266541086739    4.90480062417484
H         7.18500963687016    4.93334976006673    4.18144911856566
C         3.20191136297220    1.75910305052024    2.96982337507454
C         2.30612595528684    3.00092345590312    2.89467232944763
H         2.83645110677457    3.80316371195446    2.37780546449907
H         2.07440879098780    3.34459087653966    3.90633327835972
C         1.02103411786268    2.66293815485458    2.14142658692917
H         0.39844342477324    3.56118536143740    2.08261351776197
C         0.26681036530102    1.56329688508120    2.88615012421313
H        -0.65885187116208    1.32344370621968    2.36008229491462
H         0.00237379576658    1.90397212543275    3.88992845096981
C         1.15119974903114    0.32145987853530    2.96950507187902
H         0.62481498462358   -0.46778503306397    3.51795840899783
C         2.44508946867108    0.65642987847083    3.71669996092471
H         3.06118537594635   -0.24365987726108    3.78294777829677
H         2.19633738748812    0.98945754257091    4.72731217438705
C         3.52843119479846    1.25723905336172    1.55851912981999
H         4.08184194732057    2.02645848644687    1.01633351119626
H         4.16118352398397    0.36820036498111    1.62555882885355
C         2.23388019410130    0.93286844008476    0.81573605279484
H         2.48126296857148    0.59044509967837   -0.19395976297497
C         1.36923284222957    2.18940796794950    0.73144973871613
H         0.45456866547388    1.97363642793150    0.17615058057011
H         1.90912707478513    2.97502023019877    0.20007080560553
C         1.47994726046997   -0.16677717303377    1.56067392938341
H         0.55853098146081   -0.41318128060092    1.03020883856694
H         2.08983983371430   -1.07187394864896    1.60982631055753

