39
CSD_code = OLUNUF | q = 0 | S = 0 | Stoichiometry = C17H17AuClN3 | MND = 2
Au        4.83590501335053    6.71513712436214    7.53052293736873
Cl        3.87656893555892    5.06872517628916    6.34746484200081
N         5.19457927563932    8.48261704373158    9.82502808170642
N         6.72781674411964    9.01411592261142    8.42509926003757
N         8.72191936626105    9.74278575668187    7.55938370468944
C         5.67140737270625    8.18308313586390    8.60930871501446
C         5.92944112965445    9.48050693992993   10.41139194909636
H         5.69952319066158    9.85922960023722   11.38595055042162
C         6.89938937841011    9.81404336351010    9.53394375235706
H         7.69004706763846   10.53184906993865    9.57905501520021
C         7.59129912049456    9.09046219760525    7.31985207464929
C         7.27976942334768    8.54745918146263    6.07720679621771
H         6.34473666671260    8.03484263379493    5.91739901494097
C         8.21218432881595    8.68022178729174    5.06282073068378
H         8.00628216011489    8.26647377063492    4.08736790600291
C         9.40064349960735    9.35031107983539    5.31269521308890
H        10.14749092694352    9.47051635061196    4.54472539877745
C         9.60018146199402    9.86814387091842    6.58231677806997
H        10.50123361783923   10.40842357887480    6.83968622030977
C         4.07749381275408    7.83613025241150   10.42205417978712
C         4.29120931546024    6.71743490529109   11.22511322405519
C         3.18946441934671    6.10332343476308   11.79985068856519
H         3.33904573986334    5.23088877340334   12.41878576391694
C         1.90279338344615    6.57740747656740   11.58746456660339
C         1.72423563510148    7.69494688616249   10.78275320467800
H         0.72569340449989    8.06714174352964   10.60658092887105
C         2.79802536118126    8.33886124590289   10.19007254366321
C         5.67614791097649    6.18526162536545   11.42916325828713
H         6.07683132007012    5.82332596134389   10.48152347449429
H         5.66844638298821    5.36139292833707   12.13685005539542
H         6.34558623917842    6.96032199491710   11.80180358540492
C         0.72133941933403    5.88112749822882   12.18696142218310
H        -0.04193155982596    6.59706615205662   12.48430552086417
H         1.01275104506722    5.29110744730839   13.05237202012296
H         0.28156906026586    5.20875717400702   11.44989919143393
C         2.60159299287672    9.52731392232913    9.29999101892320
H         3.21962682841538   10.36584853065047    9.62086617594943
H         1.56112483369687    9.83923919571341    9.30325965360395
H         2.88343577544764    9.27415526752415    8.27721058256016

