40
CSD_code = OLUPOB | q = 0 | S = 0 | Stoichiometry = C14H20AuCl3N2 | MND = 4
Au        2.28409624630031    5.68472652872170    7.38017871730952
Cl        2.39967161505307    7.14519225326678    9.13076325463122
Cl        4.24147520118586    4.72901017249805    7.95062373822786
Cl        1.86444926887832    4.14257844901101    5.74134044050438
N        -0.61370783995414    5.97654016978643    7.26081959946707
N         0.23551367555840    7.49648380988347    5.97668615578703
C         0.53712538912810    6.50293510004876    6.82756620503307
C        -1.65765799494419    6.63647603483357    6.68910731355032
H        -2.67904078712263    6.38627454396766    6.88841765704043
C        -1.12624913552526    7.59038886897860    5.88594658268002
H        -1.62969719601052    8.30417735665157    5.27191194173078
C        -0.72858266896066    4.86540521085090    8.16529517332535
H        -0.31345194134468    3.96673631588670    7.70493277906162
H        -1.77875199247072    4.70007993966083    8.39671013169970
H        -0.18364836983696    5.07231776990556    9.08730730605314
C         1.19460673215409    8.38291617672394    5.29487432666855
C         0.47311850188572    9.24426053964997    4.25307744729115
H        -0.27843740703106    9.87143860792282    4.73717037112721
H        -0.01661305191195    8.60639037520961    3.51359579428791
C         1.48111541029087   10.16132612964176    3.55414266265084
H         0.94682238322805   10.76732523315823    2.81438621695428
C         2.54846193640276    9.32416224117595    2.85567444438660
H         3.26140170244171    9.97787196158512    2.35074357296777
H         2.08902209335280    8.68240867712962    2.10087647292004
C         3.26873912440311    8.47258758058010    3.89751117979451
H         4.03205499594569    7.85929968295205    3.40929309328192
C         2.26566592189797    7.54921691194213    4.58708788920148
H         1.79685817785101    6.87642889005397    3.86563174787068
H         2.80218512178764    6.93361967271318    5.31301612704542
C         1.84520327802034    9.30751342197887    6.32958219779723
H         2.34521566887125    8.71956170240592    7.09872510293922
H         1.07417491315108    9.90719330791449    6.81993199040136
C         2.85415827122588   10.21898690025989    5.62938154676811
H         3.32187183235315   10.86473167479392    6.37854919580993
C         3.92460303053511    9.37098798891910    4.94485239418027
H         4.44360867148162    8.75948201316384    5.68537011651176
H         4.66217038634094   10.01908869977038    4.46822583512767
C         2.13707566607019   11.07532639155700    4.58732429908812
H         2.85110479217231   11.73723101573741    4.09472351703007
H         1.38166837740797   11.69922167955232    5.07024546151428

