44
CSD_code = OLUQAO | q = 0 | S = 0 | Stoichiometry = C18H19AuCl3N3 | MND = 4
Au        2.15064954169885    3.76676030017313    6.12843358722426
Cl        4.24901132423941    4.36332485456416    6.69379399577144
Cl        1.31237844272439    5.21319058880555    7.65147592141265
Cl        2.90957458714392    2.30719740724310    4.54790592675251
N        -0.61285614140391    2.57078419597425    6.23123430919657
N        -0.21273497206535    3.53090099890089    4.34620858153165
N         0.24321435769696    6.28488050694318    4.58811169670685
C         0.30635312766751    3.25741390534007    5.54837174850509
C        -1.47314502715652    3.01896047956804    4.27095882982777
H        -2.08339903636087    3.12399922571871    3.39799725363857
C        -1.72656217270946    2.41135771838110    5.45784278398425
H        -2.58854071023193    1.88148822031003    5.80788863957098
C        -0.45867717384150    2.09914672782314    7.56753936572984
C        -1.04050283395824    2.82221852926728    8.60900094163154
C        -0.83879330084865    2.36848134732461    9.90303516185326
H        -1.26869824868399    2.92306523312348   10.72381169302753
C        -0.08990469889753    1.23017599662501   10.16818346940493
C         0.43997416869449    0.51436837853346    9.10379329663662
H         1.00606632796826   -0.38498598935636    9.29700585568254
C         0.26414680854216    0.92789484371814    7.79188601879648
C        -1.84249631130492    4.05534744721973    8.33823646217205
H        -1.19187819571514    4.83436797279985    7.94220074347987
H        -2.29445998574621    4.41985413369177    9.25589007081186
H        -2.63082159786488    3.86599430706806    7.61108602014548
C         0.15099855281236    0.79127002125149   11.57845055786744
H         1.02549996229362    1.30692879150991   11.97556652491554
H         0.33837104671301   -0.27836339323153   11.62865340817806
H        -0.69801323683515    1.03521231053349   12.21247227298915
C         0.80694922275685    0.12398116966834    6.65101708705699
H         0.02786335627386   -0.08373495520732    5.91757520694095
H         1.20568818267244   -0.82040802957830    7.01047873853017
H         1.60690267054831    0.65532813290609    6.13742105845045
C         0.47244417615125    4.26902456965866    3.31074428428502
H        -0.25924764818289    4.53720186714881    2.54491826116992
H         1.25149093032620    3.63627061856289    2.87408295811481
C         1.08641199763345    5.51538336046747    3.90958288659865
C         2.44241668456965    5.79918214284247    3.79146729644455
H         3.09266295528998    5.15815760074947    3.21621061268051
C         2.93452970383246    6.92423344275053    4.43867214495339
H         3.98562971270475    7.16438493866856    4.38634171566589
C         2.06049488213681    7.71042482041604    5.16995184263437
H         2.40815291968169    8.57747290755499    5.70811512013958
C         0.72126447348463    7.34949364153690    5.20460014355707
H        -0.00570882445294    7.92966871203270    5.75588550533402

