100
CSD_code = OLUSIY | q = 0 | S = 0 | Stoichiometry = C46H46BO4P2Re | MND = 6
Re       -1.38658110354354    5.66361874112175   16.22755825017942
P        -1.22833285353972    5.31473845499667   18.67839062689814
P        -1.46514132025951    5.54386969795220   13.75243544445059
O        -4.00810374666752    3.99917350776511   16.19512755193782
O        -3.40744524712529    8.02412124435724   16.42862710293074
O         1.10575718206132    7.50982552593366   16.23061757165866
O        -0.49439781291758    2.86626673167540   15.50408180197818
B         0.19144502938443    1.46128196820653   15.54676515768290
C        -3.00961229588208    4.55183432251677   16.21346112892334
C        -2.62737295509793    7.18109355725066   16.35988415253620
C         0.19987522644017    6.80238730216906   16.22477552183863
C        -0.16600907892850    3.89730629805834   16.10884504354564
H         0.79190033202611    3.82013381071481   16.67187831839149
C        -2.68679360703039    4.45509262883434   19.32969355407533
C        -3.61783666864259    5.07570899968019   20.15401670479049
H        -3.46041461913263    6.09506780652332   20.47769096850777
C        -4.74888160538422    4.38405142574834   20.55231256652823
H        -5.47169819499603    4.86684839727840   21.19363362756013
C        -4.95995420179412    3.08343603197193   20.12596806593968
H        -5.84564625703189    2.55062063344933   20.43882167040307
C        -4.04315685716345    2.46920429838009   19.28657839288419
H        -4.21213667495458    1.46108805936412   18.93880467226791
C        -2.91417720196838    3.15386692033609   18.88191507150035
H        -2.20570361015205    2.68982617469484   18.20665406895928
C        -1.03500109737207    6.75704430145554   19.77245232001646
C        -1.04113697087041    8.05054928129575   19.26965614612652
H        -1.17736529085118    8.20661542755377   18.20735356620669
C        -0.87244473803722    9.12634389105838   20.12449416198234
H        -0.87755490206490   10.13170879880651   19.73039388994476
C        -0.69620449143432    8.91243234622672   21.48074892179990
H        -0.56450302505423    9.75174434063504   22.14731583033469
C        -0.68487019190185    7.62062552288089   21.98597181509335
H        -0.54449085600438    7.45492444345386   23.04401714553687
C        -0.84991547320312    6.54371978828827   21.13716695797582
H        -0.83790471737476    5.53314464744736   21.52383009440780
C         0.19088232207548    4.32607546912017   19.25230108114654
C         1.44813516784355    4.83428017097851   18.92812282979466
H         1.51292667015734    5.76232000949542   18.37326775735011
C         2.59145807594880    4.15713875407129   19.30207552879314
H         3.56236634433430    4.54986314012413   19.03879115179697
C         2.48836769256910    2.96438380395983   20.00174842346811
H         3.38002534695487    2.42363203146375   20.28139820531711
C         1.24237227023575    2.46372386154499   20.33671211408759
H         1.16150183667245    1.53549902340309   20.88290373969495
C         0.09151811354523    3.13977193330607   19.96652843606852
H        -0.87553967077609    2.73925220239556   20.23505172086148
C        -2.96366751438740    4.69198675558259   13.19265765676550
C        -4.08276064859430    5.39507949242018   12.75955320623764
H        -4.04453144019431    6.47277311078352   12.67524542680783
C        -5.24191517980447    4.70897129895366   12.44278254735307
H        -6.11040632500584    5.25407980993504   12.10270701120410
C        -5.29400452457171    3.33055398819320   12.57080180831838
H        -6.20304635211996    2.80125210243015   12.32569368769911
C        -4.18705345625530    2.63164045955926   13.02716922929794
H        -4.23248994933406    1.55919303544308   13.14600148683644
C        -3.02489612883036    3.30764815135240   13.34551811585935
H        -2.16266117637040    2.77618164736391   13.72603888576951
C        -1.47207961997147    7.10179589218605   12.80468129358628
C        -1.31051033161653    8.32699288300985   13.43676067516123
H        -1.20011402205711    8.35967951341208   14.51305429842344
C        -1.29653372768149    9.49503029696565   12.69405949809017
H        -1.17329726879489   10.44596338657732   13.19080118180839
C        -1.44165444868900    9.44309461268789   11.31851794664752
H        -1.43290512389491   10.35430529968506   10.73908176320593
C        -1.59665187648617    8.22047893267379   10.68249387129660
H        -1.70738913803594    8.17979662974001    9.60879505863422
C        -1.60836318009263    7.05220556610049   11.41922594176073
H        -1.72642564059444    6.09761826928214   10.92526062154450
C        -0.09851784829455    4.69457789392365   12.90332277801927
C         1.19235895618467    4.97098231885370   13.34088895778297
H         1.33187798786496    5.60433527104240   14.20805265211471
C         2.28136107159865    4.43447210621277   12.68121704745713
H         3.28179193021818    4.64673482509130   13.02807933129931
C         2.08638015732889    3.61620677208638   11.58054749429621
H         2.93543497272899    3.18618903943868   11.07042359497270
C         0.80245783396839    3.34085559503573   11.14072587845657
H         0.65006547020959    2.69623735126986   10.28752786882690
C        -0.29154180697663    3.88037308911208   11.79358901758636
H        -1.29002927936428    3.65159479719456   11.44867751276946
C        -0.84599874838091    0.59081933716226   16.49013616763409
H        -0.45973284575587   -0.42664232732257   16.57886659389277
H        -0.83325004927392    1.00536070124934   17.50579422797987
C        -2.29423185107500    0.51607523350191   16.01207460304733
H        -2.73340485561401    1.50949538224588   15.93311153872002
H        -2.90721530913821   -0.07028107208945   16.69954414076046
H        -2.34571765640911    0.04531008409765   15.03319835826207
C         1.66253797062026    1.50307024346871   16.27009277153606
H         1.59037629769367    1.93739210853005   17.27564192526323
H         1.98520125790572    0.47116465349175   16.43012540015814
C         2.77713627385830    2.22663528739442   15.51238457379682
H         2.95177517959179    1.75262142971076   14.54933813125743
H         3.71268358155720    2.20798864491283   16.07474594097184
H         2.51847283106791    3.26840784158930   15.32597829166225
C         0.22304845502967    0.98405284506853   13.97939428878117
H        -0.77502056786903    1.04480447361304   13.53555349995830
H         0.85014634879266    1.66727703042130   13.39926207155386
C         0.74306850076873   -0.43610174450735   13.77113139985773
H         1.75436514937798   -0.53266556741423   14.15813655345901
H         0.75661510703029   -0.69963788673713   12.71243867994588
H         0.11315828513256   -1.15338261991275   14.29195862143614

