53
CSD_code = OLUXEY | q = 0 | S = 0 | Stoichiometry = C26H20Cl2O2RuS2 | MND = 6
Ru        1.71052998653883    4.09303618623921    3.07680422349677
Cl       -0.39667901667040    3.28736188509517    3.71907006988831
Cl        0.82545019383796    6.23367964756812    2.53656587407312
S         0.95346116771737    3.23552798851356    0.85465760113914
S         1.67498127738404    5.13274639570897    5.31167796875458
O         2.98167750748266    1.51649845279859    3.91066308818467
O         4.00985192812392    5.64734452210818    1.95128821862167
C         2.48174951584942    2.49336904377969    3.58250105419911
C         3.19521156842241    4.99968444760163    2.42558961994711
C         1.22128506071433    4.63361257996573   -0.23455393763324
C         2.42887230482977    4.87327497177680   -0.86848755517969
H         3.26190728143674    4.19713454129291   -0.74585729593294
C         2.55842717158204    6.00154826200274   -1.65955646915388
H         3.49985248799903    6.19791696193409   -2.15034605352600
C         1.49692906597803    6.87836749920349   -1.80976902661574
H         1.61186509136849    7.76275489775726   -2.41819507677373
C         0.29164563198578    6.62474205576274   -1.17651110486342
H        -0.53593046781445    7.30849171657039   -1.28630369460942
C         0.14576059382590    5.49662025252190   -0.39035962691566
H        -0.78284860278602    5.29207381906498    0.12000744647316
C         2.11199090428709    2.04090723421234    0.18185378092860
C         3.44080756769392    1.99589672198026    0.57278971441752
H         3.81307462742260    2.70265357147880    1.30470644441636
C         4.27935151369855    1.04113156937189    0.02274348171864
H         5.31458871217002    1.00361411618759    0.32577533504380
C         3.79124260454142    0.13787399534498   -0.90712007838557
H         4.44816803919640   -0.60715832640190   -1.32950421280608
C         2.46137257874056    0.18693788349681   -1.29168687137352
H         2.07847731302088   -0.51836983414039   -2.01323854647142
C         1.61677464511606    1.13898048984304   -0.74799197681203
H         0.57783264920062    1.18581639794766   -1.03430737952815
C         3.13051345068891    6.16865472711999    5.19105459397479
C         2.94680686069077    7.54118326938849    5.14073146726385
H         1.94954343440192    7.94813130263894    5.20125044011002
C         4.04739598886850    8.36696031280439    4.98210585299038
H         3.90895962286365    9.43588567418607    4.92854334739217
C         5.31681304991738    7.82275931677182    4.88960600608180
H         6.17327824248929    8.46819552559698    4.76667572112124
C         5.49150066746421    6.44788485770744    4.94271009304598
H         6.48032069198381    6.02279650340401    4.85957227689937
C         4.39918962407690    5.61252351265678    5.08528729025016
H         4.52197739034551    4.53704168677488    5.10647889309827
C         2.17136623811366    3.93060097965608    6.54513845306658
C         3.07353657642318    4.26055696777847    7.54616927899539
H         3.53070644986329    5.23799993496264    7.57252219564522
C         3.38510048456316    3.32104468591129    8.51374347711664
H         4.09477152522768    3.57312776776416    9.28744646341331
C         2.78667203940311    2.07222841048086    8.49649898361096
H         3.03614133842755    1.34419811608756    9.25351554012428
C         1.85806266762484    1.76492746407431    7.51537732330468
H         1.37503325804523    0.80001184067538    7.50618481018734
C         1.54094775341163    2.69393618859820    6.54087009651713
H         0.80428174221733    2.46888100842127    5.78181238107832

