27
CSD_code = OLUXIC | q = 0 | S = 0 | Stoichiometry = C6H12N2O6Pt | MND = 4
C         0.85828145384488   11.09705152128937    2.31762002957645
C         1.61423103304820    6.17750762470482    0.43319839701611
C         0.50849325083649   11.70228096892499    0.90378824684767
H         1.43862595185445   11.96050243005769    0.38866085661641
C        -0.39888960806825   12.92745931066756    1.06975965458163
H         0.14113999066164   13.70210655843828    1.62281768948929
H        -0.69850135618872   13.32576208269996    0.09499117469672
C         0.63885903484961    5.37408117807125   -1.81932469940037
H         1.56240401045028    5.58340359969208   -2.36717005982529
H         0.70618809699964    4.35824351907658   -1.42111464565893
C         0.49455957781446    6.35991303202762   -0.65975778577038
H        -0.47563812148095    6.21968629155126   -0.16577738631262
N        -0.20470547513147   10.63964816114428    0.15510743677582
H        -0.33082052019263   10.92930457425091   -0.81678572848354
H        -1.14458303021746   10.60131097273304    0.57417564550206
N         0.56660705370118    7.75955681434582   -1.14525575844225
H        -0.20569540057123    7.91526203939478   -1.79759528495777
H         1.42997146140361    7.84675262325021   -1.69309359245336
O         1.12974841944184    9.85393276622900    2.30325627597286
O         1.87144961007903    7.24582066389253    1.08067950758836
O         0.81424562100510   11.81587698711372    3.29159015283539
O         2.13371018831816    5.09756541588335    0.58008795409376
O        -1.58344301554251   12.55427868902447    1.72879658048742
O        -0.41368779460268    5.52094562442174   -2.75129204915173
H        -1.35748843053833   12.40110655633976    2.65684162458965
H        -1.18642704313758    5.04090166778832   -2.43657149519478
Pt        0.82936504136114    8.88453832698731    0.57746725898134

