91
CSD_code = OLUYOJ | q = 0 | S = 0 | Stoichiometry = C32H44B10N4Zr | MND = 8
Zr        2.18554396605571   -0.89272348265754    3.80192971811459
C         2.62217182236028   -3.85908853969190    2.36738110188427
C         3.12710550982772   -2.87631211404062    3.57223828651461
C         1.41960554899234   -3.37469354996438    1.50619477425325
C         0.21922604890107   -4.34178233928951    1.60506406958470
H        -0.63459775597090   -3.90619946564290    1.08821957360327
H        -0.06836630888293   -4.55013116242562    2.63041826626660
H         0.45511055001101   -5.28936769534409    1.12784765534775
C         1.77838753422447   -3.34124159305046    0.00793096123092
H         1.01959478085772   -2.78404466770438   -0.53865492935131
H         1.80873658767484   -4.35281939648624   -0.39111551584501
H         2.74673747940475   -2.88991748088449   -0.17454761566440
C         0.95092909905962   -1.99577485839331    1.97307017834241
C        -0.00135948511569   -1.79332194637303    3.00469772714470
H        -0.56741257097546   -2.56834411720313    3.50889426499881
C        -0.22636140279648   -0.41679799822473    3.20413967266980
H        -1.00956977740535    0.01628358121459    3.81406813751939
C         0.60973535414178    1.64988627635457    1.92048170299793
H        -0.01693541017854    2.35540535234201    2.45232955596264
C         1.42496062075513    2.06271986952966    0.89946803767151
H         1.45929656698223    3.10554425100944    0.62100047394230
C         2.21617788291965    1.13816344277899    0.20046797256040
H         2.86278979219956    1.49627835424122   -0.58734686294796
C         2.17539393503982   -0.20567918752094    0.47650853215011
H         2.77881897117662   -0.86957391324112   -0.12318028168662
C         1.31919086615140   -0.69500457161940    1.48910796760945
C         0.55888742213251    0.28356431341079    2.25213036722736
N         3.78038086865135    0.23934065592792    3.33490191407526
C         5.79762617260259    3.09305253857710    4.15747397634855
H         4.97859597090390    3.65455600039171    4.59984241036149
H         6.38837181543031    3.76446307214245    3.52795801795510
H         6.44471726171051    2.72727266145891    4.96606663069363
C         6.32576527756025    1.10836176855139    2.87839054230651
H         5.84190666841190    0.29949483019538    2.33286077326429
H         6.90982663031969    0.67492001998692    3.69873750862768
H         6.99737389545825    1.66027252221822    2.21847850279697
C         2.96594746813629    2.42146030825322    3.97455597265446
C         2.81471753605225    3.61796897954142    3.27428158434023
H         3.53122421875465    3.87658382834657    2.50866754354151
C         1.75502814523665    4.46375635138218    3.54901987664877
H         1.64870857135113    5.38864527214048    3.00063787393113
C         0.82938324002677    4.12891506777239    4.52397112084141
H         0.00483095121888    4.79277045207048    4.73954540537763
C         0.96928369379754    2.94079896596135    5.22435561484547
H         0.25813785119095    2.68663226567106    5.99884198348630
C         2.02537210149740    2.08518810684426    4.95004548706360
H         2.16753146317383    1.17911276379446    5.54299960453139
N         2.12109463934554   -0.93154541197764    5.79931834143760
C         3.51549039662540   -1.08563206583258    8.18766500408425
H         3.87152664126765   -0.78316302177486    7.19935699299221
H         4.10879345960914   -1.93342929302684    8.54270328595112
H         3.62687696149118   -0.25584435579881    8.89186948337327
C         1.50483260257539   -2.01264714257237    9.22157479209499
H         0.43413514088833   -2.12019027009144    9.06115149367464
H         1.66681322898349   -1.34811449524994   10.07547466060344
H         1.92564208293025   -2.99497709865650    9.46875710899344
C         0.16193266322704   -1.97642492831754    6.67804494333169
C        -0.06705366360379   -3.35102225204297    6.67354523517107
H         0.74701405639937   -4.02706773085282    6.89125602526163
C        -1.32879719444116   -3.84455524867939    6.39026582328758
H        -1.49775630320948   -4.91159175536920    6.38172982653299
C        -2.37524031278334   -2.97606099393804    6.12359663213917
H        -3.35977141289718   -3.36399742135812    5.90773797962804
C        -2.15801550675985   -1.60727776745854    6.14147177448970
H        -2.97706535743137   -0.92959756751630    5.94662259539580
C        -0.89467633675211   -1.10952364645967    6.40761155386932
H        -0.71772348448042   -0.04091720910292    6.42979382007956
C         4.04263918326998    1.44360804234444    3.58920261715253
N         5.29734933932493    1.99869029789988    3.36320748997119
C         1.55100877677076   -1.42518262338954    6.80701839001620
N         2.12888935900981   -1.45435923451679    8.05399758957694
B         4.12978775844136   -3.04954951994359    2.20116106298199
H         4.19971567708148   -2.12511769111189    1.46967361490576
B         3.95635192518882   -4.73243347878802    1.70147169703502
H         3.94318514467520   -5.01439358376102    0.56082056468174
B         2.83379986747689   -5.51443675828907    2.80727243092280
H         2.07271951148459   -6.31447473353157    2.40506390857277
B         2.31378391555343   -4.31058409091793    3.99205631750442
H         1.21091405182960   -4.20893993079119    4.40196803743513
B         4.83342887293128   -3.02447229151901    3.81224505179284
H         5.39936043120072   -2.04648187055564    4.16145236630102
B         5.39017835287798   -4.21521676932091    2.61904812268808
H         6.45554977743724   -4.16664286868764    2.12093671009003
B         4.57979754465577   -5.75898444535719    3.00659802375655
H         5.07468072730114   -6.80196186413751    2.77432284802334
B         3.54066921401856   -5.50661144639634    4.43604837303182
H         3.30613695096939   -6.35934433286444    5.21416098077876
B         3.71975838409194   -3.81047444480472    4.90943423714795
H         3.55536350796511   -3.37112694056404    5.99263589024557
B         5.13376481927184   -4.69944294811280    4.32034873037583
H         6.02818717951836   -4.98538058797998    5.03053143818707

