71
CSD_code = OLUZOK | q = 0 | S = 0 | Stoichiometry = C19H34B10N2S4SiZr | MND = 10
Zr        6.50096033185603   12.87958809913966    2.35952497270498
S         4.62009640556483   11.22967150196035    1.56188512626540
S         6.59121645491695   10.36910700723157    3.53176883177152
S         8.28220892380446   11.20114960565428    1.02423950858970
S         8.96367651219215   12.89297334432423    3.32142262945847
Si        5.28403653935861   16.29105668473787    2.85566356027002
N         4.83393863476644    8.72166272678968    2.42027479530671
N        10.59477199515699   11.05945614215325    2.31039389629352
C         5.01784665437975   15.15120656089095    4.35958127265610
C         5.51164346321217   13.60002265699055    4.19881658069006
C         6.47137648362417   17.72334043596727    3.29359839644120
H         6.74270440662786   18.27973703124120    2.40195585011414
H         7.38762150331613   17.37397928645102    3.75834479988452
H         6.00297811294300   18.41834984659296    3.98213626170000
C         3.63140718636003   17.05163911359494    2.27136388039429
H         3.70323171462624   17.38383714693570    1.24055869325413
H         3.37786017636667   17.91581162025242    2.87660183680031
H         2.80262309267411   16.35528420113899    2.34072935132561
C         6.08535307701587   15.15275507212757    1.60577462301416
C         7.49371348744939   15.04115853736961    1.39204948299005
H         8.24137384013348   15.62172759322675    1.92192748318030
C         7.75965947713675   14.16397749745629    0.34294756458833
H         8.73173916561138   13.94632190882112   -0.07940871016051
C         6.18521434181946   12.82877263643158   -1.21916133650565
H         6.97045862847208   12.34807864616944   -1.78822579559448
C         4.86170346987255   12.62510418406715   -1.52577681371483
H         4.59346619756497   11.96670668294272   -2.33871675918289
C         3.84072622838726   13.26563070561498   -0.80559015801132
H         2.81353319408706   13.09097930710081   -1.08939771258261
C         4.12161111039418   14.10372452975995    0.24776227164507
H         3.32116280220942   14.60148379111928    0.77787548960012
C         5.46395509942490   14.33107803973523    0.60107515283459
C         6.51218186920021   13.69668416506456   -0.16354297964690
C         5.35786688353950    7.64367999741466    3.22175255862128
H         6.07526765270016    8.03562651921249    3.93863867725619
H         5.85234526112495    6.90783583232452    2.58293152298338
H         4.54027826110403    7.15673009492921    3.75621705482558
C         3.75424073568375    8.35086003699333    1.53992130138279
H         3.50847897323375    9.18347788391419    0.88537539625644
H         2.87011285813129    8.08156495572177    2.12288423563654
H         4.05569047675016    7.49237570622497    0.93667461478967
C        11.55406990912608   11.38269403839116    3.33684627542722
H        11.10512203069073   12.05181106262088    4.06674376307652
H        12.42737850992850   11.86893293559845    2.89476321080694
H        11.87460782196385   10.46636232005105    3.83596911727332
C        11.01722026216005   10.02562861471422    1.39869402712527
H        10.28476537584624    9.91558460496753    0.60255658519735
H        11.11531665153875    9.07498555476761    1.92869113444493
H        11.98448725626153   10.29224340827447    0.96818841432986
C         5.30942297408375    9.96755236587017    2.49744248403726
C         9.39570711975799   11.64619074988771    2.22575681826036
B         6.40581450092193   14.65851104242857    5.21466272017774
H         7.46058676023581   15.00722615008209    4.80002307700509
B         5.21611368139538   15.73361548941151    5.95858034262286
H         5.48723849539896   16.87021317622707    6.09247381872539
B         3.62478856415252   15.29152966499452    5.34322885322765
H         2.85412371912112   16.13911745095033    5.07599475546518
B         3.83060638476963   13.94000972175332    4.21721573346451
H         3.26651580803599   13.83307012399802    3.18187315409783
B         6.05463726269180   13.01931511354580    5.73559288419939
H         6.93346369781418   12.22708496775580    5.72873306759227
B         5.87569138683449   14.36839912167179    6.87670503416332
H         6.60498073149847   14.51798457934741    7.78745446102986
B         4.12806044880782   14.75682151448257    6.95637170496310
H         3.63054510604020   15.18922775775571    7.93149907099080
B         3.24858701587435   13.64305415790829    5.86440422856175
H         2.14699430516393   13.28240793975468    6.06764978387541
B         4.46087970642856   12.58184144146463    5.12676391964793
H         4.24925891956803   11.49200206427931    4.72055610387843
B         4.64977854915498   13.06360463337126    6.82271171594299
H         4.52510536194510   12.28727089787874    7.69830633225526

