93
CSD_code = OLUZUQ | q = 0 | S = 0 | Stoichiometry = C32H44B10N4O2Zr | MND = 10
Zr       10.69871509226459    4.59663957300353   13.91939501366602
O        11.33004010481059    3.05261280974308   15.14639095677538
O        11.10962925511270    3.34358747622795   12.35726518473584
N         9.24908897391976    2.93599691648370   13.49104480642076
N        10.05659484453032    4.62500947364753   16.03621649542639
N         9.95512189251394    1.47819157872113   11.75511420840293
N        10.70041780236491    2.71248867173480   17.30181575160519
C        13.12293057827825    6.86361588375314   13.54845888591094
C        12.73787458084777    5.38932595247018   14.13717204719940
B        13.07894072965504    6.62977809250697   15.25043251074366
H        12.16876990704887    7.06864704743060   15.86693073803510
B        14.35665346009374    7.59810047951143   14.49853186247674
H        14.36441175340715    8.76639122815602   14.62292428349446
B        14.73798944096944    6.87736517346626   12.93809956058696
H        14.99946767985299    7.56843343819122   12.02498075697367
B        13.69125811785806    5.47114368620995   12.72032533940799
H        13.17347408685666    5.16077086397474   11.70736293972263
B        13.71976110058847    5.02452956056795   15.52506609287092
H        13.24537853074748    4.37221945792908   16.39012147715708
B        14.76158687557429    6.43069305478604   15.77215475801004
H        15.11123275251890    6.77572221255873   16.84244506889009
B        15.79412979371363    6.56857023651717   14.32478990120701
H        16.87867873535079    7.02407140533406   14.37571887627166
B        15.37475256715248    5.23952104986667   13.20466463036260
H        16.15971118347593    4.75646449180939   12.47221350298130
B        14.07379806049582    4.30283874303861   13.97058668136686
H        13.81435056249561    3.16580371772718   13.77114289699733
B        15.39510382197212    4.96055185295796   14.96654597382130
H        16.19543933425629    4.26653789102055   15.48085181086404
C        12.33606902112837    8.11409981017105   11.45942944492781
H        11.44288354730086    8.47360511437166   10.95235555133157
H        12.76819020063532    7.30693009917548   10.88036123617941
H        13.06133365901622    8.92434390564286   11.48594846167802
C        11.70531621158897    8.99689019089149   13.65093720489340
H        11.55340874433984    8.84514824549764   14.71432558789494
H        10.81791259341694    9.47293291645448   13.23775341894284
H        12.54215287238723    9.67986194077119   13.53019287399219
C        11.97550963133938    7.67891124696004   12.89279298197653
C         8.61989976694325    6.09153353470072   13.61056643135414
H         7.68129234052636    6.05488205912374   14.14684594781751
C         9.72586883385851    6.89762999639033   13.93431439857995
H         9.76510338584558    7.53767254356015   14.80840881206244
C        10.68668433966829    6.85633222090793   12.88847437608862
C        10.55852286840875    5.60136902344814   10.57548893271902
H        11.49969562414526    5.92029016334495   10.15614176722873
C         9.74920195334697    4.79514777338613    9.81512689526837
H        10.07824412828369    4.49389741825624    8.83058402529288
C         8.49718067701398    4.35554706463053   10.27467412684891
H         7.88965079149452    3.72940582545956    9.63618191116844
C         8.04339821232112    4.72683461851836   11.51276827991374
H         7.07118403308960    4.40757573539268   11.86854537279759
C         8.84826658306951    5.54760267999566   12.32397119239849
C        10.14287198977928    6.01218109100010   11.86164942556570
C         8.60022995706555    2.11900961386063   14.38802964173937
C         9.05729010666300    0.83963394266448   14.73672614287752
H         9.93299466597602    0.44184548369555   14.24287279107229
C         8.42803231691898    0.12237685789202   15.73473748178928
H         8.79403421769876   -0.86215698726658   15.99346321865320
C         7.33935768380231    0.65091210716771   16.40989763368246
H         6.85351115436299    0.08379133291734   17.18973138587675
C         6.88622880321845    1.91994393919279   16.08134329334877
H         6.04401920766391    2.34289301008212   16.61086855617707
C         7.50453192177789    2.64777093640876   15.08646082648093
H         7.16053784009443    3.64098461891882   14.82773196114989
C        10.10868419911800    2.56310971222603   12.55181766389419
C         8.69729320843828    0.78390241941447   11.62145958234635
H         7.91731980152954    1.31535707190883   12.16179094919685
H         8.76778786428681   -0.23467322831407   12.01340164532043
H         8.42427769861779    0.73676196938705   10.56454963259083
C        10.94688662750677    1.18909240479316   10.74445559047406
H        11.86503790625312    1.71339725856674   11.00045708068352
H        10.60791465169979    1.52328750290037    9.75951342620637
H        11.12769937837411    0.11325970585883   10.71626752981276
C         9.73929875812919    5.46933741399232   17.10394460216490
C        10.68624862283859    5.77929732542566   18.08684532821069
H        11.65962950134135    5.31261677702713   18.04231618817620
C        10.38951807044659    6.69065422523500   19.08121799273437
H        11.13507298472609    6.92483475444605   19.82675753108914
C         9.15035506513771    7.30938360106751   19.12336918648541
H         8.92403390765332    8.02335308524100   19.90056475404236
C         8.20476662499598    7.00581839260108   18.15782932361666
H         7.23430248007361    7.48034406852464   18.18477040148694
C         8.49186300126565    6.09683149087981   17.15780175873588
H         7.74823078509349    5.84962452862545   16.41488870474389
C        10.69488794416177    3.47101647577524   16.17857660926758
C        11.52619082255117    1.52628415438328   17.34654043331258
H        12.27369433747430    1.59412010630343   16.55932700873115
H        10.92246033577659    0.62701615831911   17.19426521782318
H        12.01754381514650    1.47176202761869   18.31933870702149
C         9.71609519006563    2.82380581110476   18.35154845467114
H         8.88125745042475    3.43846817955009   18.02570509672178
H        10.15127606145982    3.26432992057899   19.25343328238120
H         9.33906140243387    1.82645459356502   18.58648171595051

