107
CSD_code = OMABEJ | q = 0 | S = 0 | Stoichiometry = C38H49B10N5O3SiZr | MND = 10
Zr       -3.66812713558447   -3.60383919852795    3.68964731185675
Si       -6.15381281863167   -6.16429332951662    2.90351300118398
O        -2.99007006903178   -1.82758545240885    2.84500962161741
O        -1.96475037186727   -4.47473562339031    2.91264663526350
O        -2.18866439308752   -3.00534964159695    5.02567429809038
N        -0.45170839196701   -2.82481399726194    3.50121067662014
N         0.15440942029743   -4.65450836376489    2.21157803318516
N        -4.79546241485266   -1.78747589386318    4.11494704756195
N        -3.69004764835100    0.23155272908629    3.47737068280010
N        -0.79958915359454   -1.16293143267216    5.02644367792768
C        -5.74359203341754   -5.07139562674581    1.40153557934152
C        -4.64806592645728   -3.89352266446918    1.69967201781109
B        -6.28633977406950   -3.46560131707158    1.44701486695728
H        -6.89885408509388   -3.11294069765008    2.39583971881061
B        -6.92397642161182   -4.61096337117515    0.25174777291670
H        -8.01473632311575   -5.03163159970126    0.38901788333797
B        -5.62335833060202   -5.70980923853899   -0.18820122256704
H        -5.85467641289990   -6.85390507027329   -0.33837749318206
B        -4.19441518966484   -5.24557242625900    0.74179882109009
H        -3.47610972081297   -6.04234410331569    1.24192278016122
B        -5.02974461026013   -2.53399303740770    0.67370070668493
H        -4.80310140401536   -1.44288638236800    1.06834889501894
B        -6.47715537127767   -2.97622681205602   -0.24848336323424
H        -7.27814503680378   -2.17479220522226   -0.57209500360879
B        -6.04135206210124   -4.37801080297075   -1.26991709182870
H        -6.54768423983716   -4.56751751376958   -2.31659331393841
B        -4.32290269952331   -4.78329451178841   -0.95777236083045
H        -3.61660976103758   -5.25275917575960   -1.77722352233006
B        -3.72719589949920   -3.62843893250686    0.25952688086409
H        -2.59622740604262   -3.29313752501759    0.39073260426370
B        -4.85613916044721   -3.08034670689585   -1.00311019210930
H        -4.51803631766752   -2.34442857550013   -1.85998576938474
C        -5.90244175461591   -8.01499384021418    2.47944943754020
H        -5.80407840547431   -8.60583289827241    3.38452212856893
H        -5.02056474165709   -8.18791690045699    1.87222153975907
H        -6.75368002874941   -8.40058227989441    1.92777848669858
C        -7.99051758054243   -5.95990338006259    3.40632851915970
H        -8.19860190265236   -6.50743141628547    4.32002515338428
H        -8.65127915224093   -6.34471093099713    2.63694683188375
H        -8.25978469761697   -4.92280787659893    3.57534539118909
C        -5.03835738122323   -5.53572493946936    4.26090226387543
C        -5.41974608171522   -4.57307480753625    5.24521209921901
H        -6.41177010424622   -4.14326968533088    5.32787171376066
C        -4.39954078693235   -4.40094521286391    6.18136432928619
H        -4.44066860817778   -3.77938040940067    7.06612719599817
C        -2.09146595842965   -5.54069889786600    6.41794363839248
H        -1.79974579457405   -5.02451214905345    7.32329571399578
C        -1.25903371139570   -6.46964245219497    5.84265340785533
H        -0.29706017436753   -6.68207064663027    6.28843221475315
C        -1.64343787694021   -7.17028305978430    4.68863459263228
H        -0.97098561564712   -7.91319026183578    4.28132151175967
C        -2.85764098693931   -6.94290639982632    4.08556791144986
H        -3.14855938177692   -7.51528703637474    3.21525487752377
C        -3.72724897536559   -5.98279857963478    4.63165795102744
C        -3.33738794318271   -5.27707576187334    5.82799702960327
C         0.40889184406467   -1.90768540181860    2.83551760782886
C         1.45887626054278   -1.29073393456879    3.50388930510086
H         1.64271260500984   -1.52123213359972    4.53990660573909
C         2.24468184861292   -0.36789444194674    2.83671104074896
H         3.05562801378864    0.11709744987624    3.35850615002260
C         1.99689553555426   -0.06543627332455    1.50759603132347
H         2.61484996160103    0.65421274187239    0.99226533803044
C         0.94865434362110   -0.68096371772226    0.84444738644184
H         0.74261701032500   -0.44076905088012   -0.18757493183137
C         0.14871831403060   -1.59638721699544    1.50605536998028
H        -0.69527311398321   -2.05460006325823    1.01065751945115
C        -0.80769009762053   -3.98832602176847    2.88060100893251
C         1.57260657996276   -4.45606593697557    2.39779156322371
H         1.77086374556832   -3.99549267008842    3.36208370459096
H         1.99781151395303   -3.82893178970938    1.60995201475503
H         2.05896930020377   -5.43189920796094    2.37275466378220
C        -0.21462453837192   -5.76506365745377    1.35983190049304
H        -1.26599218201820   -5.67933412822733    1.09410002111937
H        -0.05218820149996   -6.71666948484061    1.87098302089283
H         0.39254918039059   -5.73088052699192    0.45549247932068
C        -5.53352126359909   -1.30370624807068    5.19961898482318
C        -6.91274808302179   -1.52737125121269    5.25501402798026
H        -7.40224314436848   -1.99539203342501    4.41208778930455
C        -7.63968147643771   -1.13565396177772    6.36278295829818
H        -8.70512983579856   -1.31266199604883    6.39148971840818
C        -7.01223886134140   -0.51750866532789    7.43246984845461
H        -7.58428520565840   -0.21703781089489    8.29714011421545
C        -5.64643001646886   -0.28961432696245    7.38429225056258
H        -5.14401064750602    0.18846333101905    8.21236667980884
C        -4.91023659908941   -0.67520346712440    6.28123334157574
H        -3.84285651578515   -0.51467127571406    6.24950731879321
C        -3.82767618730229   -1.11329691337989    3.50713131124789
C        -4.75612476751187    1.15407190992913    3.79173108641748
H        -5.71275688938418    0.63694657172950    3.80965642510672
H        -4.79323782027944    1.92555287473469    3.02095396189639
H        -4.59096088763960    1.62560462200992    4.76527543394323
C        -2.54633872613756    0.78514645260317    2.78114026927874
H        -1.67528581383855    0.15930622876938    2.97133210798907
H        -2.36238781692539    1.78765154985118    3.16297320449071
H        -2.72323264900278    0.82886271306425    1.70207769828618
C        -1.22726966901578   -2.29694379039510    4.60790963850274
C        -1.28325785550526   -0.57295199394980    6.17854590857075
C        -1.61724972738029   -1.29448304508107    7.32911348992225
H        -1.55362973040795   -2.37258818121475    7.31061102485437
C        -2.02227295791328   -0.63513986304076    8.47347322403150
H        -2.27844009818345   -1.20539404318257    9.35561510400077
C        -2.10663012436561    0.74743353663399    8.49626793376237
H        -2.42876780649808    1.25880340395480    9.39175670819827
C        -1.76343656615545    1.47072431075799    7.36459079619723
H        -1.81707418510883    2.55058341001027    7.37913644712084
C        -1.34503523218145    0.82264806458977    6.21998462066369
H        -1.06137195653968    1.37751367637904    5.33915865369476

