81
CSD_code = OMABIN | q = 0 | S = 0 | Stoichiometry = C23H43B10N3SZr | MND = 9
Zr       -3.94509411711637    5.84773138988838   11.19388551830117
S        -3.18574645402717    3.39029603831148   11.72580831734050
C        -7.20614018494646    5.58820932809805   11.87846978124418
C        -6.03548372116208    5.18630184790896   10.79277437622082
B        -7.25559385128581    6.29009819222779   10.31727087306804
H        -6.94147765821767    7.42162455015552   10.18552063532488
B        -8.74371517485447    5.75028812730594   11.11145081302693
H        -9.50796509275856    6.53975874187419   11.52709806671922
B        -8.35965593202893    4.31545171811234   12.05251375911273
H        -8.86465362253720    4.14813434178478   13.10017283652532
B        -6.64261442460930    3.97096061469436   11.83618874449134
H        -5.91930400280535    3.59740709995125   12.69309350430598
B        -6.75913126293964    5.03499764576989    9.20850090912928
H        -6.11582297102709    5.33680174228634    8.27057687535515
B        -8.48009376131212    5.39327432070262    9.39841176205118
H        -9.10789233502672    5.91990040217055    8.55296877427238
B        -9.15530049336564    4.14457253445509   10.47942301463466
H       -10.27615097435386    3.79276369404402   10.40081063733487
B        -7.83797319461042    3.02984485637719   10.93949715880290
H        -8.02092001884171    1.89284845805769   11.18039441020953
B        -6.36040756090525    3.61369343547010   10.13903104193577
H        -5.41870672012182    2.95923582979702    9.84787627744181
B        -7.91800089439483    3.69900381365379    9.28763608730213
H        -8.14869973138152    3.02624117372558    8.34970415226886
C        -6.77716958187329    6.48612461266361   13.06872250046133
C        -7.60127234823136    7.79186128961842   13.12267666267855
H        -7.17794537468972    8.45355944589880   13.87675789121578
H        -8.63005245842372    7.57785650888074   13.39994801175312
H        -7.61748927778360    8.31477459198282   12.17209194717953
C        -7.03216974316597    5.80182558861644   14.42569997907361
H        -6.51984809150169    6.34970912892140   15.21462798601076
H        -6.69956746714308    4.77029311710468   14.43897911474914
H        -8.09634132770117    5.80391227352811   14.64961054964095
C        -5.30366519074332    6.87230676003930   12.93990412939161
C        -4.85289557570188    8.00247292808268   12.20409813313173
H        -5.48861388976007    8.70260417449831   11.67548317911960
C        -3.47518185403713    8.19686326705542   12.39353784779128
H        -2.91080123957630    9.06235882893538   12.07143517930881
C        -1.79634141832985    7.04400101252975   13.96311772639387
H        -1.00518592502965    7.76701533290231   13.80683204328184
C        -1.63029692163539    5.99228463552107   14.82627988774591
H        -0.69659043526250    5.86252525405436   15.35541181435977
C        -2.67260474381017    5.07624569429171   15.04350364467856
H        -2.50085522945009    4.23670500778939   15.70154142831801
C        -3.90756187755077    5.23505719697890   14.46488963941569
H        -4.68270074867829    4.52043869997269   14.70068517768621
C        -4.14987038699228    6.33875582841552   13.61311554654958
C        -3.02685141793551    7.20771876688422   13.30247100609563
C        -1.65308490307383    4.17497879054815   11.68242185078403
C        -0.62350022571231    1.99398523847105   11.81752903645829
H        -1.23134505114236    1.71868103427500   10.95873095088121
H        -1.08387144576868    1.57139596953972   12.71713382399443
H         0.37810746204913    1.58110895213389   11.69863413391299
C         0.46781221467874    3.86552120060161   12.86962514820750
H         0.32902483053398    4.91098381424844   13.12212463556331
H         1.47601609737092    3.71549897272772   12.47626249793625
H         0.35912040136482    3.27938954031801   13.78894686048928
C        -0.46804043778337    6.17410088357962   11.07651941731632
H        -0.07728474709174    6.65287841873512   11.98562313039361
H         0.30343328506178    5.49227137801717   10.69154911105139
C        -0.75703045146448    7.27076386905957   10.04925912751982
H        -1.67918790366595    7.78736608499888   10.34396284483606
H        -0.92348919532185    6.81104678600189    9.07387107787915
C         0.38875612078562    8.27500906626462    9.94303933003663
H         0.54929017614067    8.75066169573338   10.91379341857596
H         1.30962520383937    7.75062739912778    9.67633512718056
C         0.09504255572535    9.34567302697117    8.89890784017142
H         0.91400271849468   10.05846684175532    8.83864745243742
H        -0.81386213920685    9.88704855847980    9.15263050536916
H        -0.03880976839518    8.89519286241652    7.91793009403037
C        -4.02921048766734    7.56650091198794    8.58714657243995
H        -3.18951403271828    7.95551966472363    7.98414261439482
H        -4.31934922438502    8.33944278693023    9.30798199036457
H        -4.87450775120447    7.40307854297980    7.89601449992231
C        -3.21299878027746    5.33221179838971    8.35520482915271
H        -2.34497823756521    5.67272891189659    7.76176971354341
H        -4.00093162870316    5.05882115182621    7.63258381793633
H        -2.92390669761393    4.42623924183271    8.90533379679706
N        -3.65699679443036    6.35421821236819    9.28290686376421
N        -1.68820617728627    5.44379031622719   11.37485546974399
N        -0.51190830566163    3.43538823471919   11.89058306405978

