66
CSD_code = OMADIP | q = 0 | S = 0 | Stoichiometry = C22H40ClN2Rh | MND = 6
Rh        3.52478626482151    8.16441100248601   17.66397923267520
Cl        5.19746221789165    9.42183039061215   18.64015668255899
N         4.67998848428101    5.77574584912443   19.19321479053700
C         4.68989215118818    6.61276509324621   18.13404870029672
N         5.69872074461018    6.28543931551855   17.31921364902761
C         6.57495590229236    5.29140189741541   17.90855357652351
H         7.49783984621752    5.76986457894083   18.26359922744109
H         6.84175097449598    4.52065160095080   17.18587369550852
C         5.71994662217105    4.74625250452185   19.05260262908555
H         6.30409538428422    4.66103119238636   19.97251332987161
C         4.18661630817635    6.12914647295876   20.53464704060085
C         5.24796010456998    7.00294792702782   21.21791717618468
H         6.18713278605298    6.46589182381661   21.33380109480723
H         4.90747221423182    7.30819088019080   22.20344049991016
H         5.42802307471950    7.89343064382847   20.61882040973413
C         2.87389159163490    6.90774021485429   20.45511363765934
H         3.00692869105109    7.82385580928509   19.86393336138001
H         2.56562883062169    7.19177570776931   21.45788539740978
H         2.09138081049954    6.29739824728412   20.01125085008736
C         3.92117394851900    4.87889364471030   21.38090316587248
H         3.15719894159577    4.25602959634412   20.92167566306313
H         3.55462506367922    5.19380389152293   22.35490793952596
H         4.81759773876754    4.28735143485763   21.54378771796109
C         6.21701468741113    7.15262327973474   16.28523361321935
H         7.04009139172655    7.74398608722961   16.71002779930106
H         5.41409004348517    7.85003774421708   16.00745567906892
C         6.72415976864173    6.40795457984161   15.05172554976119
H         7.17971398278546    7.14201956157154   14.38414107122818
H         7.50877227968342    5.70454037054637   15.34012101352786
C         5.62202149956013    5.66457315298847   14.30240905393881
H         4.89033519398334    6.38527337966288   13.93340535222327
H         5.10540923126698    4.99167144022411   14.98903024186557
C         6.17640319779297    4.86501846156914   13.12991205586363
H         6.68125016313261    5.52214636139961   12.42525167973177
H         5.37551334122597    4.34965114069540   12.60495900198083
H         6.89305197862200    4.12211532513320   13.47498757037779
C         5.10081945628631    3.36312985795133   18.74142410865629
H         4.40718423696908    3.12853800171814   19.55124693534604
C         6.17758036709886    2.27977576864886   18.72957348295053
H         5.72131450745288    1.30488326937824   18.57583708228749
H         6.71432921038478    2.26011252524990   19.67571419411232
H         6.89882678678564    2.44338277510624   17.93239934398224
C         4.30312289152338    3.36006796742238   17.44027435693050
H         3.61220597815928    4.19982584896420   17.41622538012063
H         3.72890321384819    2.43987775546761   17.35893907377901
H         4.95756595594978    3.42070372618325   16.57456869696154
C         1.76044207277678    7.07231168920141   17.18348479963944
H         1.74960183709312    6.11679175017625   17.70507898581493
C         2.58557869514780    7.15634467548240   16.05958932959821
H         3.13153771193455    6.25627020413819   15.77885036422936
C         2.34632496561227    8.08545254556150   14.89004749038687
H         3.23761481657021    8.07266468851620   14.25666830255608
H         1.51862260704698    7.69644987036042   14.28506966850925
C         2.05692966613084    9.53813085463146   15.31009065221432
H         0.98198012897809    9.69803925566753   15.40851862282119
H         2.41204444073990   10.21024657649282   14.52576761932916
C         2.72988897609519    9.90079271266471   16.61495708662896
H         3.55969869736393   10.60166764660649   16.52887686402455
C         2.11213437200582    9.78064811651364   17.84136162276462
H         2.46675568101664   10.41376658810083   18.65575440688068
C         0.72072900928139    9.22773811679149   18.05100737472448
H         0.56425871636646    9.09671869600296   19.12443367537025
H        -0.01412596050612    9.96353436136590   17.70516608729293
C         0.48756572584143    7.87839205700547   17.34267043695876
H         0.04489285132390    8.03836712041492   16.35765499583081
H        -0.23142307096004    7.29801437374602   17.92514980949705

