57
CSD_code = OMADEL | q = 0 | S = 0 | Stoichiometry = C19H34ClN2Rh | MND = 6
Rh        2.34262474455897    2.91646351757453    2.09498114607814
Cl        4.21399191069110    1.68885449518518    2.65716618027381
N         3.68326741158439    5.25191474042605    3.56093586688290
C         3.51344043947367    4.49268612317140    2.45978560722813
N         4.32699359878731    4.92966258850946    1.49622528901803
C         5.25468311183972    5.93790809349117    1.96732756655247
C         4.62149778393886    6.35121148288091    3.29650320495775
C         3.45536890202042    4.80319280602587    4.94215295812732
C         2.18336401799157    3.96227887848557    5.04818041981471
C         3.29293105777194    5.99999387544293    5.88562590321303
C         4.65756344740564    3.95161644601298    5.37245535451085
C         4.57495894920755    4.26890561884724    0.23973171709980
C         4.33273927660829    5.17710307752324   -0.96228983267345
C         3.89491586221483    7.70382715852745    3.17325696371258
C         2.71544822653984    7.66266006391649    2.20922550528722
C         1.09951745688467    3.99694382771183    0.76915294552442
C         0.47392294182736    3.93779927679766    2.01640336001489
C        -0.71554165583256    3.04740807858165    2.31175578420806
C        -0.30298980612933    1.66575323557443    2.85588942883484
C         1.05366628919116    1.21252819710342    2.36635738849906
C         1.45649964719533    1.22715334960112    1.04786325221725
C         0.56020868702487    1.65690440562601   -0.09223400094068
C         0.71812305467265    3.15201264976777   -0.42594831595158
H         6.25351234046624    5.49749978463119    2.08943340066829
H         5.32805699917593    6.77375199327566    1.26906771437233
H         5.37162077163781    6.42182055370904    4.08774475515792
H         2.24009573308013    3.09418328918615    4.37720298045230
H         2.07924516846008    3.59817228867818    6.06690272103864
H         1.30739324307264    4.55698220350107    4.80116425977353
H         4.19276830580284    6.60595663197601    5.94506930295524
H         2.45951052522162    6.62461893969417    5.57357872535940
H         3.07988678711922    5.62894115152698    6.88506344839063
H         4.75782812494172    3.10025639629342    4.70203210546279
H         4.51787389550602    3.58527293226117    6.38566923261413
H         5.58024873783529    4.52759813371753    5.34265195057256
H         3.91419483726900    3.39098318587323    0.19360971957850
H         5.61327923365419    3.91446114311076    0.23166610629573
H         4.47482117263307    4.61177032136813   -1.87920753679707
H         3.31731333229041    5.56619287021216   -0.95060134312923
H         5.02717485845243    6.01464639669874   -0.96991072047360
H         3.53972630819217    8.01966235973709    4.15319030419954
H         4.62374139738644    8.44512968659315    2.83656051442994
H         2.00140492459355    6.90287673920221    2.51768865529546
H         3.03895088473001    7.43441953375346    1.19714595536693
H         2.21087797036390    8.62582883281125    2.19582214202069
H         1.54413160536131    4.95170488803939    0.48809571553582
H         0.50805031895816    4.84518808261369    2.61671991551551
H        -1.35307279533216    3.53800101184148    3.05062838586636
H        -1.30923384319689    2.93604731392500    1.40256094894151
H        -0.27421123988872    1.70868099718445    3.94740908115185
H        -1.05342929233775    0.91564863870422    2.58157430221889
H         1.56934134424089    0.53624586187771    3.04930535359401
H         2.28859199919621    0.58351235100698    0.76380270664690
H         0.80502232143210    1.06941597363188   -0.97994815561996
H        -0.47585736174388    1.43249052211426    0.16610824713711
H         1.49751852688722    3.26618681982974   -1.18440871959897
H        -0.21117249092842    3.53987018463533   -0.86009586748455

