71
CSD_code = OMAHOZ | q = 0 | S = 0 | Stoichiometry = C20H30N10NiO10 | MND = 6
Ni       11.50244143892551    5.45818348109601    4.57241170423424
O        10.29937009721153    3.88222181793113    3.49760622079463
O        13.36152791678841    0.53706812278565    2.64620209832580
O        12.59124382942947    5.82808550841250    3.01175224672010
O        13.15287281387363    6.40509632358922    1.05393877539385
O        11.08085903311687    6.34553294406794    1.56935737464650
N        12.78999620941376    4.10584068712694    4.90975118781209
N        14.67121942407153    3.23738267809761    5.59925266865032
N        10.91497307150653    2.92228196760594    2.91678227471737
N        12.35285214734181    1.28869316701400    2.55497071199396
N        12.25963079587434    6.21433737537494    1.84287036542779
C        13.84407322604937    4.29255188056984    5.66757676774427
C        12.94828994371151    2.88169813349980    4.30993003728264
C        14.12886510901603    2.32818478019444    4.74733785719597
C        12.06429388724783    2.35025467250329    3.30841831882385
C        10.48837539909380    2.36611676874800    1.61872197848025
C        11.22943897831285    1.00387582504253    1.63172288846264
C         8.96849406414308    2.28478471441465    1.56431450662751
C        10.99174963954540    3.31794086875508    0.52921446895407
C        10.42200881532565   -0.12175145043275    2.28829380600912
C        11.77690660019932    0.52815172016294    0.29388178254768
H        14.01116670814650    5.17131465552918    6.25683499514108
H        14.57676485514904    1.39169885564224    4.48820181002784
H        15.53842363467217    3.12957198045039    6.10050694956064
H         8.56340374739305    1.76957994270987    2.42957464707662
H         8.56171341056785    3.29222248407205    1.55269686502555
H         8.65548400796938    1.77191013230231    0.65935814858814
H        10.57752725208071    4.30975097767322    0.70164979535128
H        10.67578135366557    2.98001579934644   -0.45319441257857
H        12.07669987949791    3.39900403091396    0.54805720738168
H        10.02915123036041    0.18991228561242    3.25334505091352
H         9.60169753139172   -0.43345450955675    1.64883939519123
H        11.08174125431920   -0.97213714124675    2.44796405031438
H        10.96148544001630    0.31480246222670   -0.39116037699713
H        12.43875763388725    1.26298906160394   -0.15280255042618
H        12.35077512012676   -0.38075145855588    0.45764505310601
O        12.70834250859125    7.03557846867282    5.64173955621997
N        12.09578009569165    7.99965016482529    6.21875118929570
C        10.94664552509611    8.57181200291961    5.82679260127525
N        10.66155415843794    9.63755246039117    6.57570703786226
O         9.65381807191980   10.39026790329758    6.48326900803969
C        11.78813396970548    9.92544179332414    7.49414997636794
C        12.52625385978979    8.56171665400599    7.51293660324299
C        14.04638520107074    8.64009078661748    7.56365971496058
H        14.45059319118401    9.14957311123836    6.69460895540538
H        14.45105404588096    7.63188865763958    7.57999740252967
H        14.36248031590423    9.15743396973027    8.46499698571318
C        12.02283877073305    7.61654994861841    8.60820740454064
H        12.43251040876235    6.62236281282841    8.43851996243494
H        12.34331225730931    7.95745896651118    9.58812766180205
H        10.93753170762578    7.53960657351331    8.59316893070426
C        12.59597486073957   11.04538761734517    6.82841477466549
H        12.98516011101856   10.72712211309527    5.86402372341682
H        13.41896201345609   11.35916519873191    7.46341362686464
H        11.93758017198663   11.89622605362094    6.66569058821683
C        11.24585831713410   10.41024240356166    8.83078546267350
H        12.06392554145794   10.62591866159060    9.51194763419694
H        10.58394211254714    9.67946642939100    9.28397076492900
H        10.67337336322892   11.31936119506432    8.66346618125015
C        10.05994958783256    8.03745843414375    4.82922722799633
N        10.21504785354579    6.81027869369648    4.23490508109543
O        10.41332373415907    5.08669011749261    6.13172691079964
N        10.74637884484690    4.70813446244203    7.30267458857946
O         9.85391404280287    4.51409546172425    8.09153062494591
O        11.92572528156348    4.58678654517261    7.57774091125108
C         9.15999319082769    6.62242293701410    3.47874721056504
N         8.33510465795638    7.67957404094802    3.54311769280858
C         8.88014710734502    8.59149082778886    4.39036238823134
H         8.43464826216703    9.53015591589524    4.64567549278512
H         7.46786653385800    7.78710722117926    3.04187158515729
H         8.99053482438114    5.74116985068040    2.89384987065214

