33
CSD_code = OMALIX | q = 0 | S = 0 | Stoichiometry = C12H12BrN4O3Re | MND = 6
Re        4.98697827780474    2.65716873145191    3.60660103001204
Br        6.45546259184943    2.51390381954183    1.50121379288068
C         2.19820046968980    1.07532797379778    1.91554728119728
C         1.25843595224626    0.40281175137299    0.91735608319127
H         1.73205632640600    0.26659373310095   -0.05232195128120
H         0.36290935604684    1.00703278202689    0.79720310196227
H         0.94916441894686   -0.56471742355632    1.30430753293068
C         1.46794904343964    1.23863173446060    3.25616933315544
H         1.16737695566863    0.26425820920609    3.63359401172757
H         0.58207991732622    1.85441236965990    3.12107429658331
H         2.10829359378659    1.71278029824703    3.99602490472728
C         2.12679528023846    3.02940022451198    0.32367576148448
H         1.46694960890866    2.57298178777409   -0.38205539987146
C         2.66380897183420    4.29148835158038    0.31806594380656
H         2.51379286950232    5.06133098841105   -0.40881157118375
C         3.46128802124036    4.34569548372361    1.46089679163477
H         4.06647493142129    5.15960240637717    1.81400893465604
C         3.62061648710496   -0.98579749808031    1.62199655070835
H         2.97445825586518   -1.46725935025929    0.92024475714814
C         4.79130775975414   -1.43864485448381    2.17488447912689
H         5.27629527855997   -2.37545729001436    1.99971526858647
C         5.21930808763727   -0.40230651575533    3.00420409108051
H         6.10559289041468   -0.35457236976845    3.60888676616118
C         6.47741130739923    2.03741956098936    4.69417698612006
C         5.57533659024678    4.49067632429356    3.89059044999331
C         3.82609021190948    2.73711905081502    5.15517263778295
N         3.41032969573620    3.19731871649633    2.11377656507877
N         2.59428069888310    2.38966013205871    1.41901236298197
N         4.36735713256703    0.60749306109316    2.95772989692949
N         3.38778171111649    0.25252805869669    2.11184450686986
O         7.39072945517594    1.65853307227753    5.27174993084441
O         5.95496770351838    5.56641031269885    3.99002394607687
O         3.19132014775387    2.81817636725390    6.11334092689631

