43
CSD_code = OMANIZ | q = 1 | S = 0 | Stoichiometry = C14H22IrN2O2S2(1+) | MND = 4
Ir        2.51902798667373    2.48293314930826    2.60384857650463
N         2.11744944400130    2.18102767589619    0.61544474852279
C         1.92216018463094    3.22226503832528   -0.19978765053954
H         2.25819594136072    4.18538770235786    0.15796871139326
C         1.32086039184174    3.10603740620666   -1.43814565868937
H         1.17776228648324    3.98119760738503   -2.05082287720899
C         0.89699096816005    1.85770556688139   -1.86527925286861
H         0.40989802913245    1.73483976596161   -2.81963940003213
C         1.11290655328075    0.77175856360099   -1.03178423095968
H         0.80358654139379   -0.21987694504824   -1.31943716652977
C         1.72182365124677    0.97659496801151    0.19104725661996
H         1.89701435373372    0.14681364415600    0.86124887578365
N         4.49714206174943    2.30761177365315    2.22150441322778
C         5.08999411356213    1.10521924140569    2.13552033105931
H         4.48067072390380    0.24979747147624    2.39101033806096
C         6.40533589611327    0.93722730061481    1.74847256732826
H         6.82686636305005   -0.05351185597939    1.69799299284834
C         7.16609823803755    2.05309455825301    1.43047228361611
H         8.19577103369556    1.95514592006973    1.12684441977280
C         6.56190542012462    3.29924550288538    1.51637412758066
H         7.10861568938119    4.19772003201065    1.28028954134958
C         5.24104701496055    3.38255940213216    1.91150307251514
H         4.75143665349150    4.34336075593330    1.98619427179845
S         0.25988112909893    2.68602368542001    2.89832065818998
O        -0.42661895422939    2.54707911746131    1.61421910419877
C        -0.55627632604274    1.52529094051779    4.03683782327574
H        -1.62556600087336    1.68803759656031    3.97346155215660
H        -0.18640587183575    1.71133158531140    5.03722715572092
H        -0.32086092575484    0.51595417296231    3.71772374954410
C        -0.34820133718892    4.23546794163877    3.63253395118298
H         0.02692039795671    5.06147340281494    3.03834146762625
H         0.01293012781867    4.29556804272062    4.65146739879617
H        -1.43100417862607    4.22264590248203    3.59698091281643
S         2.88904228718653    2.78984300655400    4.78903637021828
O         1.66018548778643    2.97525753831092    5.55332014032275
C         3.82212207656522    1.46545707964973    5.63260420900347
H         3.88261099882383    1.69973870497474    6.68911079865402
H         4.81026827670607    1.39095627682826    5.19369847302434
H         3.28118918582737    0.53494607047977    5.49977695248728
C         3.99565319949011    4.16545004072555    5.25935453028332
H         3.58214416175916    5.08447418497519    4.85871191919230
H         4.98234962661132    3.98631174830391    4.84856848186404
H         4.03047709891266    4.22743871581463    6.34086406029472

