50
CSD_code = OMAPEY | q = 0 | S = 0 | Stoichiometry = C24H20AuClFN3 | MND = 2
Au        5.89113450223630    9.98141563968825    9.26422038760378
Cl        8.01559976935819    9.49798927018970    8.74983327084122
F         3.59426999243013   12.81584495736530   12.45116006095350
N         3.58033388942904   11.73714646456478    9.95185705568569
N         2.87727317939326    9.77245362327886    9.69334395169585
N         1.76229432561721   10.53634543654703    9.86156550237363
C         4.01790846961649   10.48275346259613    9.72557716611378
C         2.21904414617496   11.73262840804143   10.02197109536829
C         1.69273230559899   13.09983698409312   10.22459548375047
C         2.94089376781631   13.96085775627992    9.93386593259300
C         4.15596085902425   13.03564696016232   10.17927359097437
C         2.72381804949557    8.38876818282644    9.49915332724984
C         3.69092898771795    7.49182932746491    9.93514744806886
C         3.50244207015817    6.13786941159512    9.72505259265023
C         2.35413557774520    5.67727271406140    9.10232713283804
C         1.38290130010378    6.57511556272241    8.69074866626295
C         1.56294794085299    7.93137724531650    8.88663023565094
C         4.68374097146808   13.13560810246887   11.63543936686078
C         5.14868568924559   14.52533993798810   12.02014240547948
C         5.13404632609147   14.86192518046897   13.36903725071875
C         5.57481204370951   16.10326697620572   13.78804184640133
C         6.04602499238292   17.02069589401990   12.86495819567232
C         6.07301560409759   16.68778838244035   11.52234317400559
C         5.62688836375869   15.44773384228377   11.09807115374851
C         5.79374722344982   12.13236277495767   11.88122610571220
C         5.54856781116879   10.95742520290844   12.57741249207807
C         6.57043602419145   10.04487196092665   12.77792372236112
C         7.83788010504994   10.29753146866640   12.28608388196641
C         8.08584637438097   11.47007714821688   11.59274951423815
C         7.06975377472910   12.38500718586386   11.39066585479835
H         1.35612178780976   13.21798964370970   11.25610682066094
H         0.85858125521022   13.32393619718138    9.56226602485850
H         2.93578688336245   14.28166980951627    8.89141672238411
H         2.98123955320167   14.84426008306824   10.56767956647220
H         4.98591028248777   13.20449193914938    9.49001265638338
H         4.57784003941399    7.85204343005704   10.43228778269841
H         4.25633566866672    5.44077741559412   10.05674357238290
H         2.21391756237811    4.61898473842735    8.94327616257004
H         0.48325479225910    6.21965204204243    8.21183452477520
H         0.81694330021947    8.64542694759623    8.57526495283242
H         4.76953283380327   14.14523560020307   14.08916423426196
H         5.55335805917432   16.35126688960506   14.83835351525758
H         6.39282601434788   17.98987486331363   13.18979375214667
H         6.44219220720174   17.39595149286602   10.79574574682352
H         5.65699925672004   15.21482908819753   10.04475105985085
H         4.56111318014852   10.75585656398863   12.96620248085562
H         6.36843366502372    9.13187890054371   13.31802450307307
H         8.63019224146187    9.58001916217718   12.43050038600605
H         9.06882269273322   11.66488052686028   11.19493940583189
H         7.26883428794138   13.29948920162490   10.85161826515669

