84
CSD_code = OMAQEZ | q = 1 | S = 0 | Stoichiometry = C34H46N3Os(1+) | MND = 9
Os        5.25944933975592   10.53214517986874   19.75325546769492
N         5.35759261746828    8.02873072123061   18.21275761770546
N         4.20704873199890    7.63136013201524   20.01203135422191
N         3.67224465853326   11.29240655279642   18.38735013882242
H         2.78030662095766   11.42712331435634   18.86640344437517
H         3.49861190890792   10.71722834171076   17.56148706109282
H         3.98828866303049   12.20154558623302   18.04596833515163
C         4.85208618566292    8.61097389649087   19.33926243961650
C         5.02715273301394    6.69881660263361   18.19599740688287
H         5.31906554549117    6.00246001404558   17.44232039568283
C         4.30149314950894    6.45584862892483   19.31238169414922
H         3.84258403007293    5.55086758628295   19.65105493321470
C         6.12805981315646    8.88982903868783   17.39170266126053
C         6.25135479313362   10.16238677183729   17.99143993540075
C         7.00432597659701   11.12470239928097   17.34236448613536
H         7.11496035523512   12.11260873741995   17.76491563306861
C         7.63528639037439   10.83087383195979   16.14402836097560
H         8.24158739260679   11.57792746830402   15.65473927135881
C         7.48037320190746    9.58764436715275   15.56582438613131
H         7.96954202729224    9.38938836334129   14.62777535728541
C         6.70819706911100    8.59056842970258   16.15623769930401
C         6.55195519315065    7.25425969833990   15.46597119243418
H         5.55497582420778    6.86823268589622   15.69468156159328
C         7.62095509782617    6.28762386387339   15.98916830611287
H         8.60674757097674    6.64149817736185   15.69759897584469
H         7.47495152787377    5.29566551026879   15.56826291263523
H         7.59954901975163    6.21643787082974   17.07442679848071
C         6.63609419190392    7.34156587988397   13.94088133720872
H         7.65263228091846    7.52422149360844   13.60476801578918
H         5.99114621409057    8.13058572127639   13.56165464203653
H         6.31243651135730    6.39739318646433   13.50905665995536
C         3.48766263007492    7.78007029090283   21.23097127073637
C         4.02608102270490    7.27093656989216   22.41727440190729
C         5.35450133622050    6.55098612031065   22.44739688211103
H         5.91402256507190    6.80814709467146   21.54134454479377
C         6.20034676684834    6.93735669406290   23.66565363073163
H         6.18544003426184    8.01032842599268   23.84273814582970
H         7.23027342267363    6.62412540884059   23.51138411324676
H         5.83892071806618    6.44338799486566   24.56336631980218
C         5.12164143911210    5.03599194569172   22.46467487577111
H         4.54612224372639    4.75366975891320   23.34291401527226
H         6.07525371371673    4.51529056715334   22.49499038500863
H         4.57956369548101    4.70525949166755   21.58354149696299
C         3.28710319263676    7.41496128255937   23.58570179854271
H         3.67412473234851    7.02459244509895   24.51266844463708
C         2.05948387063211    8.04763047953842   23.57719126795014
H         1.50081600361474    8.15144373152156   24.49467960133593
C         1.53599834903753    8.53281226487717   22.39321948969031
H         0.56502739776797    9.00059751893432   22.39985311762688
C         2.23567496489050    8.40496021379672   21.20139691832527
C         1.62046909094385    8.84190791872318   19.89138721629041
H         2.42734482535095    9.01963971991589   19.17100573769545
C         0.79772503399695   10.12574572254969   20.01617424999707
H        -0.13013405692822    9.94495595253153   20.55136622993000
H         0.53011119990286   10.49394178196724   19.02732548503617
H         1.35168049124358   10.89507549613495   20.55109083720438
C         0.74370816746267    7.70457631765458   19.35557122337680
H         1.33554643293522    6.80824401595426   19.18760185743026
H         0.28332607284422    7.99447789291463   18.41430656661626
H        -0.04378437706385    7.46702026068289   20.06639455620489
C         7.08547983162494   11.01092984238864   20.93639467792095
C         8.52635132093729   10.66653595606863   20.63901861718562
H         8.83347847702274   11.22940452099227   19.75148435911477
C         9.39125342293299   11.11367371308757   21.82335449279510
H         9.28223833849275   12.18085693279708   22.00364285171646
H        10.43751600021514   10.90524149305634   21.61785070150713
H         9.10470737583835   10.58079833771694   22.72774193878772
C         8.73335505658413    9.18018563289345   20.34759571777295
H         8.62864329917322    8.58107020700121   21.24846322571901
H         9.73466690134923    9.02230113091206   19.95714476300279
H         8.01309439504493    8.84038747475225   19.60448178085344
C         6.25654100102398   10.16387901724341   21.72424318362443
H         6.66227110527634    9.23101935776123   22.09387067153433
C         5.03429543615252   10.63452219528162   22.27060658547784
H         4.49919383701714   10.02649632695470   22.98667444760994
C         4.52357107108735   11.86408292810269   21.88727821438680
C         3.23960512793460   12.38516205399206   22.45572109798298
H         2.58948184087733   11.56782301071006   22.76257928315890
H         2.71229474693911   13.01774511547415   21.74272705801490
H         3.45099314061888   12.99301497590241   23.33679938286589
C         5.30191842145895   12.67396600751795   21.01363834188717
H         4.93524479565907   13.66415824206468   20.76611218953657
C         6.58237105275847   12.30245137755103   20.62541690813942
H         7.21652838852917   13.00944071936914   20.10710634772419

