59
CSD_code = OMASEB | q = 0 | S = 0 | Stoichiometry = C27H26AuClN2O2 | MND = 2
Au        9.14847675978538    0.98890242050855    4.39136693555535
Cl        8.45812658563701   -1.09046206067135    3.96014712975509
O         8.05139849880718    5.77241038395244    5.85419842895439
C         6.69716014709652    3.49654018005986    4.25811347782217
C        11.82583058738463    4.35453650237691    4.71857606511724
C        11.78368353200100    2.06811390354227    2.44445605706305
N        11.04760280487710    3.19684389099315    4.50727240197692
C        12.53788950674450    1.06920654109158    1.84930252961451
H        12.52226990428278    0.97367139950517    0.77365987030890
O        12.75816918386752    4.58719547388114    3.98886871465535
N         8.90743681953243    3.75374863097040    5.29987231530033
C        12.59022188547217    1.31840178943492    4.61570314218179
C        12.58145722240067    6.41306675128416    7.72455218677215
H        13.46703194356261    6.78202985799371    8.21852640810974
C         9.78701870723880    2.86969455450670    4.81064426904814
C        13.30700823562121    0.19135683269579    2.59964853295037
C         7.08930800892965    2.67326676580048    6.51580257212544
C        10.30379279678239    5.45638771278160    6.43689444500313
C         5.39313829052087    3.03515241859715    4.34332892903301
H         4.73070169592257    3.18165628543899    3.50299351757699
C         9.02444557583446    5.05858480352347    5.81292657398059
C         4.92192397834085    2.39220697681326    5.47899021118841
C        10.19604367794036    6.25723981976098    7.57499218684611
H         9.20796216223642    6.50841460909965    7.93068528493881
C        12.60744603822556    1.46001021776783    6.10796512685490
H        11.60586666577866    1.31022874057964    6.51395194770124
H        12.94783341449101    2.45344777686208    6.40307071356174
H        13.27107320696429    0.72300962731826    6.55080506465720
C        13.32685346653238    0.33249515744618    3.98005839815763
H        13.92658933271426   -0.34013600881386    4.57532575522118
C        11.80763567245596    2.16427963626250    3.83261629631105
C        14.07866398132198   -0.90316384565773    1.93240325666599
H        14.92566291770442   -1.21102443199878    2.54031750132797
H        14.43674250603665   -0.58714055810426    0.95550617506748
H        13.43087490062521   -1.76840970619894    1.79025940018770
C        11.56657302635325    5.14979442160959    5.93582847677641
C         7.53717023563809    3.28467805045709    5.34714153756710
C        12.69899940822208    5.65221999273197    6.57912730932360
H        13.66752929221992    5.42890029775771    6.15712446886494
C        11.32322938936432    6.71562500796730    8.22625868291669
H        11.22302067006637    7.32075987447323    9.11404250321064
C         7.19202456073108    4.20833453252796    3.03820682000772
H         7.44491940137317    5.23968022646590    3.28424459663395
H         6.43074130274080    4.21392290127525    2.26362032080482
H         8.08484167540630    3.72267290237315    2.64479359107934
C         3.52281811324230    1.86432050735672    5.53031229418302
H         3.14554795249442    1.85718759309287    6.54992308225344
H         3.50869146669557    0.83984837047171    5.15774373009766
H         2.85840879431900    2.45880994069843    4.90816210823240
C         5.77874478048393    2.22673879629752    6.55827214164291
H         5.42009633864224    1.73723272323970    7.45165447620765
C        10.94710747622172    2.99691961616834    1.62169915813741
H        11.12026544310580    4.03306024675280    1.90816917166896
H         9.88963998983878    2.76791217359792    1.76406492602837
H        11.18017545327056    2.88499895450402    0.56674441216990
C         8.01331749186935    2.48096833304634    7.67997146285091
H         8.81877042653456    1.79557750153233    7.41080866838893
H         7.47563651686754    2.06201003262233    8.52555223351286
H         8.46049018063183    3.42706395356912    7.98703200585181

