58
CSD_code = OMATEB | q = 1 | S = 0 | Stoichiometry = C25H29N2PRh(1+) | MND = 6
Rh        5.57949649877813   11.15992306941738    4.47809706383957
P         3.55162914855135   10.65255425827154    3.57691802508191
N         6.31501631972941   10.29072153239514    2.76680447343375
N         5.91040815396763    9.09380432153216    2.33704179383117
C         7.46975670205224   10.83093298771770    5.52311899702775
H         8.02904357357600   10.08503865736586    4.95566872174930
C         7.47645802536467   12.12860252792409    5.06094682985875
H         8.01594532183415   12.32854279281305    4.13634549342335
C         7.23469554811492   13.34396527736045    5.92406345732695
H         7.83938349908609   14.16985204218450    5.54675564635771
H         7.57085702020523   13.13730181011502    6.93930958976011
C         5.75662797543586   13.78057682438837    5.91719010273708
H         5.53168519767411   14.35203342722326    6.82264983192316
H         5.58598479772946   14.44925055178540    5.06901152356745
C         4.78567252420203   12.63196890936824    5.80890295617671
H         3.79956336916187   12.93206741590902    5.44490947881882
C         4.87328123470050   11.43189815142521    6.49784257660841
H         3.95373818426233   10.85453238040798    6.60288762448752
C         5.92704359714352   11.12094275728098    7.53726199479604
H         5.48997215553610   10.47458747658213    8.29940602409105
H         6.22441134154452   12.04415839690456    8.03290846405285
C         7.15101650378273   10.40510327922161    6.93454395720683
H         8.03002576146191   10.57754512065718    7.56290150010688
H         6.96827107862246    9.32721972130394    6.93280120530816
C         7.09415010967549   10.79695034327846    1.81757244891085
H         7.55223876542943   11.76230017786942    1.91447191518041
C         7.19340355457998    9.90144892854924    0.75441579596226
H         7.75321190858952   10.02382682426864   -0.14830264781269
C         6.41860140658075    8.82480549190204    1.12452194542614
H         6.21494880045803    7.90516154651982    0.61488533535157
C         4.96710410876282    8.31652421278135    3.09588552800970
H         5.26580829769078    8.35389606651740    4.15379977714387
H         5.00698987615759    7.28213841648843    2.74723744609660
C         3.55834903714239    8.89811621643158    2.93854883001004
H         2.84738147350477    8.29532156967852    3.50510952262511
H         3.26510725095443    8.88677648748180    1.88592510863674
C         1.96657039939916   10.75185974396857    4.46056871331902
C         1.68501336610736    9.80761703348709    5.44650515588580
H         2.38329192849626    9.00274942012743    5.63901649258817
C         0.51742926294861    9.89601545651666    6.18038816670941
H         0.29962268450305    9.15715173444310    6.93648476941342
C        -0.36977325630121   10.93552598740107    5.94780178141543
H        -1.28203739482430   11.00273219791613    6.51968975365336
C        -0.08182528479754   11.89134462180618    4.98754244457682
H        -0.76771592385615   12.70597270073395    4.81260488130902
C         1.08607542333063   11.80837528682793    4.25014739767613
H         1.31135121567229   12.55800498059152    3.50468411111207
C         3.28852420181794   11.63716403291392    2.07492105256641
C         4.14845360375665   12.70753236004753    1.84839054324551
H         4.93076615961801   12.91952814977545    2.57698171972033
C         4.00300854560234   13.48761153687736    0.71584805675905
H         4.66993868996777   14.31767419741850    0.53929036166807
C         2.99549327994996   13.20166734160902   -0.19152470731602
H         2.88014096357955   13.80813351039822   -1.07641604042373
C         2.12952051138650   12.14263576778828    0.03622402444827
H         1.34045094779807   11.92972882813562   -0.66866465320938
C         2.27057629047015   11.35960409329033    1.16710341931653
H         1.58544626376763   10.54398104659736    1.35485421835739

