50
CSD_code = OMAVIH | q = 0 | S = 0 | Stoichiometry = C20H26ClNORu | MND = 9
Ru       11.08248759560487   10.62584568907160    5.05835977087310
Cl       11.12886497554810    8.73518454979938    3.66519847002035
O         8.04630947078794   11.64188632560443    1.73004250884421
N         9.07728416414284   10.49678911008715    5.03323172049488
C        10.73353331591875    9.27190685853309    6.51575774856708
C        11.67127658633288    8.62193311676528    7.30559449829106
H        12.72772494423122    8.81273888384713    7.16847832989165
C        11.27521065565125    7.70857091386473    8.26884019322726
H        12.02081723416720    7.22214659846646    8.88224824723938
C         9.93148781886337    7.39780488562648    8.45101215058884
H         9.64416193619540    6.67549653512068    9.20085934830249
C         8.97529933787497    7.99895370864570    7.66316274970291
H         7.92862553540825    7.75279921897216    7.77272825578977
C         9.37381049402783    8.93255675470587    6.70201779918635
C         8.50646997146076    9.63363746757038    5.81045966613218
H         7.43234439741484    9.46358245851900    5.78160982272433
C         8.28755956501009   11.21937483718602    4.06859867521386
H         8.54280898230169   12.28359266087835    4.10241404782969
H         7.21682659691456   11.11495219154821    4.28065011332286
C         8.57582634368473   10.71406371074884    2.65021667263547
H         9.66340972573395   10.61023162306883    2.51045286681546
H         8.12674339337510    9.72054931040473    2.50695047897907
C         8.25405887053844   11.25086178453826    0.39688294676863
H         9.32343566066763   11.14329199629451    0.17704029904117
H         7.82766058237901   12.03295276477601   -0.22820752448936
H         7.75865057931399   10.29689744659466    0.18100983064283
C        12.45977372250317   11.76856933372435    3.48516128648835
C        13.22966467344641   11.12148886782395    4.50393042098112
H        14.05472091049280   10.48165678590577    4.20497717508157
C        13.03934084714377   11.42797686790745    5.85714488485852
H        13.73220323623544   11.04640690190896    6.60007840653062
C        11.97462566408636   12.27473044141987    6.26725546098801
C        11.15256132307981   12.82566241203823    5.25169054278190
H        10.38549301618759   13.54430749172640    5.52401045927534
C        11.45602692190129   12.64681024391289    3.87287956985458
H        10.89239507087206   13.19458041299893    3.12660810273118
C        12.76019413594095   11.48297121592198    2.04640643079853
H        12.16011890974936   12.10809582345528    1.38812603199760
H        12.53779901220788   10.43422310661184    1.83584408800976
H        13.81561242180913   11.65164304735235    1.83306327551906
C        11.80727931656106   12.65640899972714    7.71959096366750
H        12.43316617614644   11.98570304168148    8.31901979221357
C        10.36038433684808   12.48813843917466    8.18663740263485
H         9.70595248987117   13.21654148275132    7.71362925239281
H        10.29837834655632   12.62638325320323    9.26329894827280
H        10.00611937898785   11.48695202691070    7.94079775064631
C        12.29221741975155   14.09395868312603    7.93602126104228
H        13.32977010517703   14.19950893510363    7.62530218165625
H        12.21805267537024   14.35922745411734    8.98777910942823
H        11.68866115552654   14.79365333025727    7.36163751551822

