51
CSD_code = OMAVED | q = 0 | S = 0 | Stoichiometry = C20H27ClNORh | MND = 8
Rh        0.58053326174230   12.69030274189278    4.53929135483157
Cl        2.63284460509786   11.64447553233869    4.36721113963668
O         1.94116875468307   12.64569484777194    8.94380854685008
N         1.43869662715559   14.15461913681900    5.66945722216225
C         1.30643851996925   13.88560258707123    3.11149001638499
C         1.26761192327905   13.68131230291477    1.73875692196806
H         0.80016725148309   12.79710684283724    1.32744642593988
C         1.84536538988354   14.60059521782904    0.87821481462831
H         1.79623539492632   14.43464235227770   -0.18882234805862
C         2.49873394845350   15.72671889292686    1.36630293522785
H         2.94897637716357   16.42757155885037    0.67885918268418
C         2.58968791718523   15.93159309140792    2.72525732547479
H         3.12104252358585   16.78402147956096    3.12423128410757
C         1.99833695445409   15.01429847197662    3.59760387849800
C         2.06120801269942   15.07749050416580    5.02366095386073
H         2.62062266435741   15.85585774262766    5.54016151359580
C         1.50210486685552   14.10666644557721    7.10713742063055
H         0.48739783831940   14.07528775666003    7.51687073508420
H         2.01180204398591   14.99245499409389    7.50606888829652
C         2.22752864258241   12.84037530707403    7.57659746013816
H         1.88136652247556   11.97762595073905    6.98357692781982
H         3.31015825185521   12.94200372565376    7.41456279587648
C         2.59673657191820   11.52268763614768    9.47488186616827
H         2.30979936395442   10.60677846349786    8.94342317471031
H         2.29635296395752   11.45052830654237   10.51832922591544
H         3.68589729162173   11.63235011778889    9.41293275416455
C        -0.53230640286815   10.79205853727168    5.22940987618227
C        -1.11101635212188   11.86238536419003    5.91550428777852
C        -1.57147974130944   12.82480553713041    4.92762741217830
C        -1.39185427531106   12.25102971753770    3.63005320426942
C        -0.63238679416928   11.05547760154756    3.79934493719211
C         0.01486387896863    9.52766219153373    5.81059737284346
H        -0.00011923230371    9.56166598995781    6.89738374829726
H         1.03996284076533    9.36604320675855    5.47733391474247
H        -0.58485455458460    8.67889002690800    5.47839789676937
C        -1.38322984652447   11.93066369038494    7.38846148942840
H        -1.76949165499932   12.90773437812627    7.66829614954625
H        -0.49392294868490   11.73001220805554    7.98295380935874
H        -2.13691379309163   11.18496656220634    7.64912039349157
C        -2.43227565096003   14.01544211452013    5.22140799559467
H        -2.41750285918942   14.71587587846033    4.38958200742954
H        -2.09884942210291   14.53968261151456    6.11506914505267
H        -3.46386260826951   13.69366035865738    5.38048835834350
C        -2.01085065108726   12.76952917767192    2.36818074617887
H        -1.64349137118439   12.23002888519290    1.49977445269130
H        -1.80937467045988   13.82970866895375    2.22505191407762
H        -3.09246568599777   12.63240183646334    2.42179867703231
C        -0.30970355887468   10.02784339315146    2.75733027427475
H        -1.02119819914698    9.20208856411711    2.82092443906499
H         0.69137069116419    9.63043302561331    2.91418245172455
H        -0.35826162131614   10.44834846704634    1.75591262987448

