51
CSD_code = OMAVUT | q = 0 | S = 0 | Stoichiometry = C23H25ClNRh | MND = 8
Rh        3.15586662615863    4.44001990584469    2.46005101583613
Cl        4.65137988624596    5.15157635660170    4.06303570482133
N         1.71954265464398    4.29329904974405    3.86387345639411
C         2.47785987215331    6.31937910053901    2.51109375460060
C         2.97441402006051    7.41348227282408    1.81491902392155
H         3.82770483232549    7.30559250028998    1.15908138447836
C         2.39297906363374    8.66163660181335    1.96600155495122
H         2.78225902253628    9.50170520985698    1.40809397114962
C         1.32342682592334    8.85454371674546    2.83448069586374
H         0.88935428912661    9.83769732951278    2.94202796718840
C         0.83874836827618    7.79767621073458    3.57161253609252
H         0.03090519653150    7.93492589101192    4.27635680230793
C         1.41275607324828    6.53258572935843    3.41415057743830
C         1.05178677357229    5.36439393954321    4.14709224863291
H         0.30062305241150    5.37224186419309    4.93324128638986
C         1.46973582339515    3.08278799600839    4.51779592670056
C         0.17227216732122    2.58712012869325    4.63897248515880
H        -0.65311810350757    3.14461032628877    4.21852328807697
C        -0.04523889549053    1.37403589670477    5.26634655622223
H        -1.05103855495025    0.98879814453289    5.34894705921541
C         1.01847654734719    0.65595261978305    5.78699327103670
H         0.84219416663086   -0.28886586004317    6.27875719358277
C         2.30861268061518    1.15132992772984    5.67298694855947
H         3.13787736017582    0.59455424708475    6.08347799712228
C         2.54088292132513    2.35416651483765    5.03564989675064
H         3.54013695550091    2.75948614020577    4.94465768579167
C         2.44274495763797    3.17986666590937    0.81650104326928
C         3.28675341375655    2.28193430539538    1.58429606253428
C         4.57358728530366    2.82739097994399    1.61267145641218
C         4.56220092374580    4.06690485051054    0.84596415561771
C         3.27034498479923    4.20504941034513    0.25912380817215
C         1.04522986202484    2.86297856623422    0.38094659559994
H         1.07247961797782    2.20048227591877   -0.48692322917292
H         0.50829300015625    3.76727824109340    0.10245992318883
H         0.49169157080959    2.35962187706243    1.17164673474886
C         2.85641470194040    0.93740288291853    2.08286304050794
H         3.51358762483144    0.57783675244209    2.87060290750940
H         2.88336050016282    0.22142369648559    1.25848000889820
H         1.84092238734676    0.96179534297276    2.47384287847668
C         5.81091749658483    2.24406111934428    2.21536480822820
H         5.58816719589588    1.33524148330799    2.76905410038750
H         6.27683646931128    2.95903366400595    2.89335779872003
H         6.52765253767853    2.00738350519201    1.42707252841833
C         5.81166654627914    4.80609578487360    0.47318158956435
H         5.58383866605810    5.74732893920919   -0.02124902502748
H         6.41160116187179    4.19672725825303   -0.20581248460876
H         6.40792544205722    5.01770848618297    1.35889860649128
C         2.85858029222439    5.14625370287166   -0.83086642763678
H         1.88184744164096    5.58517620554192   -0.63500858990941
H         2.80216484342577    4.59626441895000   -1.77252163661947
H         3.57779145126859    5.95172782460165   -0.95106694205050

