80
CSD_code = OMAWIK | q = 0 | S = 0 | Stoichiometry = C44H32AuN2P | MND = 2
Au       -3.10399159013523    3.44181027035171   17.39944114109193
P        -2.60227023897297    1.35897706560700   16.72687460707424
N        -2.03446539974368    2.50002036363820   14.60860338828159
N        -2.10982780107818    0.95102458030883   19.10046723819880
C        -3.45890199382876    0.87325550166252   15.20846963710835
C        -4.47101891648125    0.00063063330382   15.45567651508541
C        -5.59117095142792   -0.45248610236203   14.58238275613235
H        -5.61438116884439    0.10178715616485   13.64452003828048
H        -5.48147971150724   -1.51636112232965   14.35123306997001
C        -6.89412553226143   -0.21953972141154   15.35685217839150
H        -6.96863698545044    0.85103352006591   15.56054072163512
H        -7.74541807630267   -0.49495645061736   14.73258288097916
C        -6.94228054463013   -0.99925323193392   16.68066526099297
H        -7.57637374101570   -1.88122874386269   16.57287368233234
H        -7.39480229642129   -0.36595123771906   17.44514379423991
C        -5.55879193705460   -1.46043636929261   17.17574634533928
H        -5.59800419186097   -1.63862672549930   18.24985171589508
H        -5.30557568920226   -2.40978149853738   16.69092791996307
C        -4.49344066865055   -0.47791867987397   16.82677478130639
C        -3.50147907346118    0.04837773817038   17.59268331593429
C        -3.03728013200327   -0.00758817864605   18.95109705306677
C        -3.37269280082733   -0.87049239732560   19.99149413406139
H        -4.09559601572622   -1.65786080583923   19.84901296405378
C        -2.74140032160071   -0.69795712399278   21.21147518229749
H        -2.98117751162278   -1.34594853350124   22.04224748347022
C        -1.79899259044573    0.30913428401883   21.35823287302890
H        -1.29617581407255    0.46823995624181   22.29877767662988
C        -1.51085219877301    1.10864007589933   20.25945519111207
H        -0.77653012687649    1.90142089004923   20.31477773842612
C        -2.96213419266133    1.66415358992173   14.11707329074293
C        -3.27183604006306    1.62844889145992   12.75964641875800
H        -3.99337759540972    0.92606716452275   12.37361405399779
C        -2.61645516774993    2.51066758512197   11.91776326747583
H        -2.83583311040370    2.51492189305403   10.85971402285642
C        -1.67658497333055    3.38598379824637   12.44170183712774
H        -1.15573387880678    4.08737264533837   11.80957362438252
C        -1.41370922747415    3.33408847037049   13.80469570328425
H        -0.68193936606266    3.98552669476574   14.26401869426949
C        -0.90835029157045    0.77241207840440   16.55222030379870
C        -0.63971292054162   -0.51406021658310   16.10399359344621
H        -1.45810677938203   -1.17719533272225   15.85485673048283
C         0.67366353005799   -0.93013327355889   15.98203008567145
H         0.89255488542505   -1.92973642963088   15.63404156344216
C         1.70922721867566   -0.06763758339035   16.30511872241959
H         2.73321588063711   -0.39830523669793   16.20809505391784
C         1.43620942786031    1.21619443092498   16.75132775766475
H         2.24792603240571    1.88439686973254   17.00108104768298
C         0.12627347705069    1.63892359577063   16.87568538484600
H        -0.11707148334693    2.63483711486113   17.22052279201697
C        -3.42084233564604    5.28058571041300   17.95698721498491
C        -3.60311683055689    6.43558395106283   18.27014609896574
C        -3.81540223562594    7.78928913834981   18.62352336934552
C        -4.54915249706651    8.61959200556797   17.79367841999712
H        -5.00741637578505    8.18587133370471   16.91803348279945
C        -4.76445994454260    9.97016074328210   18.10544163044769
C        -5.47487019817965   10.87577808917672   17.24392013110237
C        -5.66174216191717   10.65875845367972   15.83646622957214
C        -4.85228175613762    9.79683654299468   15.07167251227499
H        -3.99459984551915    9.32886217494693   15.52829927848539
C        -5.08843989858315    9.59339003397384   13.73598327258201
H        -4.44795355787322    8.92982942371974   13.17265604350771
C        -6.14041372429809   10.25018939846664   13.09225346898212
H        -6.33410486873206   10.06232225311163   12.04591881282727
C        -6.88199725030640   11.17077198824129   13.78343132447800
H        -7.65286762856294   11.74115859485023   13.28367787814195
C        -6.63679611360064   11.42300596922145   15.14435169936224
C        -7.30388873924447   12.48037050726473   15.81546287177934
H        -8.05743262628145   13.03928039517147   15.27840948939560
C        -6.94245665012312   12.82584618009872   17.07492947955668
H        -7.37915973218566   13.68816764078233   17.55949122481820
C        -6.01253873687919   12.04504635880798   17.80963529669275
C        -5.62500892445591   12.44690466614157   19.11410952057972
H        -6.01793790369725   13.37700152794100   19.50051185583324
C        -4.75320002131182   11.70404775912539   19.84042382785886
H        -4.40834615924688   12.04067424054377   20.80838379387338
C        -4.33887124474188   10.42993742125888   19.38026918460692
C        -3.56872653901167    9.58313849381705   20.19941297008956
H        -3.22546423942886    9.96253783157595   21.15274454192084
C        -3.28272052481079    8.30168422010107   19.82315124313851
H        -2.69068214068632    7.65348509007157   20.45376859939561

