63
CSD_code = OMAWUU | q = 0 | S = 0 | Stoichiometry = C24H32CrO5Si | MND = 9
Cr        2.36503892639248    1.62016055885929    3.37173941730082
C         2.28014834051009    1.02400607365291    5.09208117511136
O         2.18262829906378    0.64480813919774    6.17738793817107
C         1.27520655656711    2.95492640446183    3.97577641369504
O         0.53807793814549    3.74068039143399    4.38641383146197
C         0.77721484494314    0.74395628559438    3.22456926126124
O        -0.25158898491272    0.21716425218415    3.20310768246912
C         5.49129173258860    2.13176334789519    4.53304328734017
C         5.75661370575473    3.41553446041199    4.97991842404894
C         5.30505129372081    4.52740464878705    4.23536064270545
C         4.53544543047916    4.32835819301825    3.10258154068874
C         4.15009426211200    3.02770073135364    2.69880521002316
C         3.22229806590633    2.80130503456737    1.63358450395394
H         2.82191050365905    3.65982626239272    1.10865098522097
C         2.95390686884587    1.51698699282907    1.18581429016886
H         2.35019898529123    1.36320682957115    0.29881076118386
C         3.50988727048098    0.40161407902891    1.85551887808968
H         3.33488456320697   -0.59616550372798    1.46998431600361
C         4.30085283791778    0.58917759266158    2.97912742447810
H         4.74276080237564   -0.25650384880453    3.48556179297022
C         4.67551734972686    1.90457053234461    3.39831818400155
O         5.92901714249741    1.05263609409795    5.23006943417965
Si        7.19182351288045    0.01114150601055    5.12117799514263
C         8.83093690553122    0.82207475353853    5.67101878098289
H         8.80860881227445    1.12995988909175    6.71222701496052
H         9.05862461292707    1.70068026615972    5.07276806971966
H         9.66087686909311    0.13195049717216    5.55839092644007
C         7.48378303851141   -0.59208850542599    3.32891496504124
H         6.80868172014398   -1.39064319938585    3.03576504506898
H         8.49387417385643   -0.96847290599439    3.20433384674062
H         7.35285389555634    0.22209994604705    2.62027798072457
C         6.63044739464910   -1.38698844698979    6.31000051009531
C         6.45816963828012   -0.84128962715975    7.72974718664291
H         7.39639366534714   -0.44600749840919    8.11222004254736
H         6.12541211886825   -1.63253968787371    8.40042978191241
H         5.71572476635339   -0.04787884913270    7.74490120284949
C         7.68545325087971   -2.49372578401952    6.33222300208678
H         8.64288920134636   -2.10781690227600    6.67375260954380
H         7.82406321661700   -2.91901629925404    5.34093260332720
H         7.38250337297623   -3.29400987541252    7.00619959043000
C         5.29373539313785   -1.98786502013270    5.86475459503568
H         5.37037220075935   -2.42373699620310    4.87019617623869
H         4.51341504302043   -1.23018765175987    5.85827836423235
H         4.98980122823055   -2.77700276126248    6.55138796257448
C         6.42080345317446    3.56969418099978    6.32004518688064
H         6.93109262725668    4.52578499401661    6.40833070430230
H         7.15529376970083    2.77671156691379    6.45025635231593
C         5.36273000560883    3.44721513914870    7.42055635221203
H         5.82437341667418    3.53970789779220    8.40083587646328
H         4.86701582283984    2.48210013893756    7.35717788173246
H         4.60667761365933    4.22198984051229    7.31500259077070
C         5.63442059336794    5.93566689686172    4.65373896939384
H         5.49434796421221    6.04439783888843    5.72918910622496
H         4.93749015112069    6.61212903990714    4.15745476501380
C         7.06661727462676    6.32999718829556    4.28167724199160
H         7.26588988775051    7.35065571044229    4.59997392066145
H         7.21536150909298    6.27310885613331    3.20555784540635
H         7.79373765797095    5.67239971941721    4.75222381245201
O         4.04463237553635    5.40680215768465    2.37827894840759
C         4.78989514313342    5.72831406685428    1.22320290966189
H         4.22923404151939    6.50603458868560    0.70740326201464
H         4.90969065644965    4.86372740873858    0.56035251696528
H         5.78339526979161    6.11010837062810    1.48111811026717

