116
CSD_code = OMAWUW | q = 1 | S = 0 | Stoichiometry = C65H47OP2Ru(1+) | MND = 8
C         3.90970145345418    3.27014121507486    5.58795026241481
C         3.78426201565820    3.08400171781601    6.80424864222825
C         3.68083662091342    2.86988452570477    8.15193585819141
C         4.64022387594349    2.01311424734266    8.80289818858330
C         5.60200849667287    1.33733350882450    8.06918411610735
H         5.62397873681328    1.46290951243716    6.99518328511773
C         6.54122010827852    0.49152958239228    8.67560519928643
C         7.51883941896968   -0.20360459179687    7.92988897958847
H         7.54277577165105   -0.07758345653894    6.85650145848485
C         8.41851486602525   -1.02136747216061    8.55483571914674
H         9.16332888606454   -1.55100235182030    7.98005847210990
C         8.38463273100848   -1.18254881952527    9.94984836697982
H         9.10400355490151   -1.83323257534296   10.42301705363482
C         7.45053713239551   -0.52314712204923   10.70254604346261
H         7.42043375981971   -0.64385878281047   11.77498517689699
C         6.50869277680746    0.32645402073101   10.08993162797589
C         5.53112677201878    1.02111059352268   10.82579655194461
H         5.48946283159066    0.91335753533166   11.90033475646197
C         4.61292778705977    1.84247086360884   10.21619855252071
C         3.61670117186532    2.53629909553852   11.05693625425798
C         2.61275252412619    3.35109276072109   10.34274357175762
C         1.63441361282306    3.97828051679678   11.07627400909922
H         1.64304073071069    3.86025837706258   12.15052086223603
C         0.63492879685286    4.75713270822667   10.46453112001218
C        -0.36955439524720    5.41072868454093   11.20506335775643
H        -0.36747722984286    5.31481097741958   12.28040891328185
C        -1.32890600737263    6.15283532049707   10.57047418227034
H        -2.09579730095929    6.65311200039017   11.14181356749105
C        -1.32929693683264    6.26889851397384    9.17045076764234
H        -2.09857151308870    6.85467542290409    8.68995176226827
C        -0.36877436572265    5.64627818370011    8.42329531069223
H        -0.36365501578122    5.72616575230173    7.34593229667171
C         0.64097338529065    4.88021558352347    9.04591612055272
C         1.65091376185377    4.24343374885222    8.31068407986103
H         1.65464740859546    4.33777174956116    7.23409753733161
C         2.63952738705093    3.49292294617459    8.92556778473108
C         5.69190474671511    1.24556244745235    3.89441720356821
H         5.56243287053027    0.36754307091625    4.51357616455171
C         6.55619878282588    2.33248777830009    4.16020654928133
H         7.19413573632767    2.44382332334208    5.02689186486964
C         6.58890037511895    3.15352637852487    3.00228031223581
H         7.27062013136977    3.98064767934085    2.84939397160143
C         5.76065155013542    2.56663260881901    2.01021778888869
H         5.72293270541375    2.85523114337313    0.96945190093054
C         5.20665505157772    1.39120529003348    2.56568865762013
H         4.63488931199528    0.64491696669187    2.02847636314286
C         5.85816100048485    6.29689100051973    4.28732878392830
C         6.50250344553372    5.69314197437470    5.36008381953776
H         6.19020554784252    4.70533715059026    5.68117102906751
C         7.52196878972534    6.35598687748656    6.02089083184799
H         8.02227750753694    5.88179038447389    6.85208605020922
C         7.89676861626326    7.62663167473521    5.61781149170781
H         8.69605985204612    8.14140075298585    6.12841042959420
C         7.23709676112526    8.24392081067491    4.56581199805731
H         7.51810076207044    9.24101046850632    4.26238167418051
C         6.21395471425509    7.58920829106786    3.90699982697196
H         5.68794065110466    8.07586399980407    3.09707803865974
C         3.18173902581679    6.59807257371254    4.14165484021432
C         2.94465143601524    6.47144878398298    5.50953218645818
H         3.43820318883089    5.67397100431190    6.05165999182782
C         2.10435543846102    7.35341450810635    6.15890000069024
H         1.93192283759705    7.25367181027448    7.22048720034602
C         1.49067645386539    8.37186021328690    5.44509115716978
H         0.83197694836616    9.06328127724685    5.94843990733629
C         1.73667283310382    8.51115625380461    4.09041829910874
H         1.27329747893989    9.31396870930971    3.53696958722711
C         2.58928114596750    7.63718361946926    3.43643618710389
H         2.79068149720054    7.77986268833021    2.38553557325917
C         4.62296918345825    5.90584680543570    1.72115276204699
C         5.87006860606518    6.11390052670365    1.13749749422184
H         6.76322190676779    6.09891857321201    1.74684318068355
C         5.96945692785461    6.35788260834911   -0.22062182387732
H         6.93951325686916    6.52396281213178   -0.66458973254146
C         4.83091521236103    6.38958254225438   -1.00992834437774
H         4.91321043837957    6.58369391059514   -2.06829729460621
C         3.58794201427928    6.16796798017403   -0.43869924555100
H         2.69823976224480    6.18487212838172   -1.05069625779599
C         3.48332806812385    5.91716592706678    0.91796787150733
H         2.51707001500081    5.72924899259242    1.36756914148430
C         1.39456423006173    1.55481247138688    4.17942260232785
C         2.08613022780086    0.73870174698141    5.06673641619943
H         3.16437893109847    0.81519517789583    5.12846003388981
C         1.40256682473098   -0.15280126962357    5.87407727400555
H         1.94617688339123   -0.77910898524387    6.56567677779273
C         0.02279689496340   -0.24049408991965    5.79382345503972
H        -0.51205654388429   -0.93393214033650    6.42449894899910
C        -0.67167060953000    0.56073662210222    4.90059169264220
H        -1.74651490835602    0.48755498115419    4.83215039810914
C         0.00679578044206    1.45530745877835    4.09413367577221
H        -0.53655479193040    2.07692319583370    3.39618670187109
C         1.07299954093034    4.04607037648946    2.96495257942181
C         0.73684426657248    4.68314566801883    4.15720401771333
H         1.22636092246893    4.35854871771236    5.06687529902250
C        -0.20843271994173    5.68924484971934    4.16449820339185
H        -0.47576304136810    6.17936024470224    5.08802133932182
C        -0.81498060107401    6.07748068906729    2.97988204548471
H        -1.55010080205749    6.86739875442626    2.98426985621368
C        -0.48680221275508    5.44457762229220    1.79338005085613
H        -0.96793882759557    5.73816368116581    0.87249447262817
C         0.45096291694976    4.42494829935753    1.78087860934404
H         0.68681176547298    3.92143320894557    0.85402622626015
C         2.22467834375884    1.89824860682041    1.47394279183795
C         2.78403340790474    2.56618435258002    0.38538731461432
H         3.22874271955672    3.54212063408206    0.53286218015988
C         2.77250801712868    1.98863081157996   -0.86962061575522
H         3.20241561951634    2.51625961830107   -1.70829997052748
C         2.21440999354597    0.73188670268058   -1.04761372783737
H         2.20870624169941    0.27720591798165   -2.02625565590734
C         1.67081885493833    0.05805798118378    0.03328224472775
H         1.24235941520543   -0.92353121521087   -0.10208110125086
C         1.67455462427372    0.63385197773235    1.29277195455954
H         1.25357871650353    0.09850592583578    2.13162272454442
P         4.45003295510002    5.46593496680121    3.47591422114947
P         2.30497072124085    2.71170478019591    3.10249218306955
Ru        4.47946528689711    3.16663555820616    3.75056323070753
O         3.61582476043501    2.43316728669019   12.26970430812555

