42
CSD_code = OMAWAA | q = 0 | S = 0 | Stoichiometry = C16H22Cl2IrN | MND = 8
Ir        0.19426373310765   -0.97748773738888    2.58928193911723
Cl       -1.86099043365253   -1.43966499031972    3.60049483466462
Cl       -0.81109150393121   -1.18350628157956    0.49260996456696
N        -0.75814489668087    1.07078135993337    2.42273471673749
H        -0.84136932750705    1.22533097682858    1.41644317019009
H        -1.68220847437774    0.86236107830948    2.81315692798862
C        -0.12791096195846    2.14171371886334    3.09199079097545
C        -0.36953592476198    2.35242747161366    4.44689605112538
H        -1.06258763710267    1.70516582789841    4.96324665752369
C         0.28093668177593    3.37219073913013    5.11551124174747
H         0.08813532272444    3.53179516560083    6.16561921295563
C         1.17559029462599    4.19035554070691    4.44343242507741
H         1.68181135880074    4.98618773242479    4.96786163375592
C         1.41417200158465    3.98605921234995    3.09442435427841
H         2.10578608394116    4.62408147731337    2.56444879940154
C         0.76560632835064    2.96836035874874    2.41747597736237
H         0.94321301674645    2.81047097156575    1.36348072063725
C         1.41971686249400   -2.03559689590910    4.14870919258927
C         1.43353353792090   -2.71326967368941    2.87170608401687
C         2.14795952939350   -1.87549994332582    1.93594175133080
C         2.42349823361051   -0.64931878803608    2.58259122019347
C         1.97629383534639   -0.75136721122160    3.95969486045801
C         0.94709213573891   -2.64089405157580    5.42800245959801
H        -0.12743527898999   -2.81951359411169    5.39269999238666
H         1.15764138230768   -1.98547508923570    6.26844715058553
H         1.44450463318896   -3.59691578467949    5.59000063810458
C         1.08660753410108   -4.14988941579979    2.65263408144493
H         1.95477912795360   -4.77788984977357    2.86332340464515
H         0.78119360131344   -4.31669911791485    1.62256406717923
H         0.27427578717207   -4.45149941194028    3.30905192895489
C         2.54599012569857   -2.28800415452635    0.55833291729264
H         3.26369072124240   -1.59021699237308    0.13573051188779
H         1.67507970692797   -2.32381345211124   -0.09655232225434
H         2.99113744914604   -3.28176610571041    0.58420291219437
C         3.21891422538570    0.48408647768959    2.02455940793007
H         2.90322551095300    1.43194336493349    2.45590285866750
H         3.10633182053443    0.54136892839975    0.94466953565813
H         4.27641004105138    0.34278252665029    2.25537450476876
C         2.25106625691275    0.25273055913120    5.02976837902850
H         3.18909446209155    0.00743898227835    5.53130188373893
H         1.45663201166485    0.25785679609218    5.77222891884238
H         2.33849108515627    1.25459927475230    4.61740424264166

