62
CSD_code = OMAXIJ | q = 1 | S = 0 | Stoichiometry = C27H30CuN4(1+) | MND = 4
Cu        6.16820987121311    4.02971261182492    4.30539213950242
N         4.34462011066159    3.78493438539873    5.58084169619992
C         4.35386180172191    2.37751362975452    5.94326509068339
H         3.84432911912285    1.81334684263906    5.16042059655557
H         3.82761643813489    2.19213984441688    6.88985061843413
C         5.79068041600008    1.84814420035098    6.05769119734274
H         6.31118122007040    2.38335361932607    6.85976159260439
H         5.77051618434976    0.78091636844594    6.31430948439816
N         6.51323377382947    2.09529014577951    4.83922385591742
C         7.28100734286297    1.20160316802885    4.35910350449004
H         7.39673645503035    0.24390354378261    4.87716996709970
C         8.07674054558761    1.35766340643811    3.15877966779605
C         9.10561381247160    0.44654160649284    2.90256391389987
H         9.28421971950451   -0.36646010779871    3.59099949152452
C         9.90257698234816    0.59165369100977    1.78328680412887
H        10.69968359969910   -0.11142095225141    1.59660958564179
C         9.67742998137556    1.63558737263898    0.89861584229077
H        10.30109342402520    1.74524055625614    0.02480035516899
C         8.64551861773030    2.53371549402907    1.13216999819062
H         8.46143738967692    3.34151784849351    0.43991943464708
C         7.85118790304844    2.39621343820025    2.25165683261365
H         7.03536068291341    3.08241340912177    2.43446149001796
C         3.24786724494434    4.17022235463422    4.70858212213761
H         3.11123677708385    5.25067011177741    4.77723523180997
H         2.30247557666091    3.69148961233199    4.99897228857208
C         3.55871444134298    3.81833561343814    3.24657136634217
H         3.67301323308248    2.73273454484196    3.15158156416042
H         2.72393864030983    4.13301377062638    2.60665560622152
N         4.80232439251025    4.41635075615505    2.84219640302326
C         4.90448678870730    4.96641404911230    1.69957142699355
H         4.04530472487192    4.97977385951522    1.02076150157364
C         6.11395141983923    5.56984517362585    1.17902055720898
C         6.18805428399468    5.87425799328483   -0.18352150077755
H         5.34212018017070    5.67114666272440   -0.82379011847956
C         7.34152059046029    6.41839698195745   -0.71472096223000
H         7.39319125301226    6.64399482263174   -1.76869945811946
C         8.43017093430324    6.67817819945658    0.10417097175740
H         9.32939873983926    7.10361714533277   -0.31405057571325
C         8.36050612435071    6.39880867091216    1.46175823486765
H         9.20290185742273    6.60875126811041    2.10360735535644
C         7.21249820254781    5.85070766261749    1.99548548904733
H         7.14395798841608    5.64296912165802    3.05477534601116
C         4.56990460218208    4.69131426114417    6.69435152878060
H         5.14266514757154    4.16598414678311    7.46030906075115
H         3.62796275216760    5.02824241397329    7.14882553557604
C         5.37793770336910    5.91866756264027    6.24889826567979
H         4.80759222513110    6.47434224312208    5.49610539638492
H         5.54702204476493    6.58040068225327    7.10838233447815
N         6.61154999771257    5.50817745353703    5.63444119376223
C         7.69012828574205    6.13434887223081    5.88574229369290
H         7.67921335101472    6.99210055282803    6.56625898388754
C         8.97834122346725    5.82267359948500    5.30102091884313
C        10.01402474626235    6.75624702518568    5.40167545246750
H         9.84633658831582    7.68733961161448    5.92297052973401
C        11.24260265851850    6.49941906797352    4.82415607180998
H        12.03455885357162    7.22854534707307    4.89943428122740
C        11.46060522375163    5.30586809178333    4.15245531854086
H        12.42195282337249    5.10798956807731    3.70395069293933
C        10.44614217576919    4.36301360293921    4.06452227327952
H        10.61592173470816    3.42865842422139    3.55094204443043
C         9.21567588744512    4.61811989411038    4.63394544028178
H         8.42367318991190    3.88334508189866    4.58265637453660

