63
CSD_code = OMAXAB | q = 0 | S = 0 | Stoichiometry = C24H32CrO5Si | MND = 9
Cr        8.07618941849541    1.61868868560815   35.95173345996366
C         9.66410205792222    0.74273761098610   35.80384914632295
O        10.69301023803092    0.21614197734608   35.78185373466798
C         8.16138524695772    1.02234027781821   37.67197441191048
O         8.25886105690524    0.64343755274609   38.75741737941292
C         9.16580723364269    2.95348895270107   36.55607145411901
O         9.90270765761464    3.73928762158276   36.96704431491591
C         4.95023097201397    2.13102544778502   37.11364260796852
C         4.68524289760392    3.41493483467461   37.56032998039678
C         5.13689921467311    4.52658539870852   36.81549750511351
C         5.90617622987595    4.32718372798477   35.68256024166512
C         6.29120441721336    3.02637920000065   35.27893497939994
C         7.21866347303743    2.79957557897602   34.21351503482428
H         7.61910681382881    3.65785626422849   33.68823420918423
C         7.48672265727022    1.51509706421483   33.76598911574776
H         8.09010866984620    1.36100247785200   32.87881841864023
C         6.93080956540571    0.39995444368795   34.43612074853143
H         7.10554625263377   -0.59794483291564   34.05077859149119
C         6.14026647126302    0.58794431950063   35.55995853641230
H         5.69847868443079   -0.25753987724866   36.06681177516074
C         5.76576832720997    1.90347998587970   35.97882461289566
O         4.51237477497576    1.05214498859720   37.81095676254009
Si        3.24976764826901    0.01040435045909   37.70236515291750
C         2.95754601018842   -0.59193683313830   35.90984575505576
H         3.63324816997629   -1.38974782355702   35.61597353005617
H         3.08765343096288    0.22284456635254   35.20173446617827
H         1.94774025426968   -0.96909495937959   35.78529188278610
C         1.61086536838992    0.82075111717267   38.25365271069425
H         1.63422554834934    1.12874483794883   39.29481442923665
H         0.78112888398032    0.13022445276364   38.14202546387627
H         1.38210054180408    1.69919769865445   37.65559269536849
C         3.81170770545463   -1.38805666942486   38.89053218753617
C         3.98562437735403   -0.84237919464685   40.31007962245490
H         3.04818016864635   -0.44577809619094   40.69310555255912
H         4.72913798274142   -0.04994663653537   40.32464017567641
H         4.31773368816759   -1.63398959988260   40.98065378721320
C         2.75621182559341   -2.49430728875616   38.91377574684392
H         1.79918688359883   -2.10797652784145   39.25598694976883
H         3.05938299371693   -3.29456413120971   39.58768260845742
H         2.61669305051791   -2.91976162719848   37.92268154384906
C         5.14775948468531   -1.98945166739345   38.44400967531281
H         5.07002641229881   -2.42503737927232   37.44942248549633
H         5.45186256705366   -2.77892320300031   39.13017147493661
H         5.92847127695541   -1.23218017620250   38.43707551170350
C         4.02150636434982    3.56938615612263   38.90064397245717
H         3.28695580518818    2.77651288633101   39.03122403009444
H         3.51138178031366    4.52555698774321   38.98901380594316
C         5.08008247968413    3.44685460671296   40.00066796935095
H         4.61896894371446    3.53953824239486   40.98116966232990
H         5.83621372515951    4.22148883721820   39.89463510831192
H         5.57560461447149    2.48164818632179   39.93715118818516
C         4.80802394664109    5.93497256494926   37.23384495258914
H         5.50498622968458    6.61123405126427   36.73733223659179
H         4.94843857402772    6.04370558994628   38.30925273098528
C         3.37582682984334    6.32967913993282   36.86219387035089
H         3.17666374384835    7.35010548369140   37.18129081819718
H         2.64870719348657    5.67177168547313   37.33230334604824
H         3.22699322656013    6.27364514943111   35.78604371311335
O         6.39701291254084    5.40543925712976   34.95798881411559
C         5.65176538608851    5.72665698231492   33.80282749995522
H         6.21231641784871    6.50440969588656   33.28696160060574
H         4.65817522530081    6.10829342136538   34.06063679160047
H         5.53215999742038    4.86196416533466   33.14008745991230

