71
CSD_code = OMEGIW | q = 0 | S = 0 | Stoichiometry = C24H42As2Br2Pd | MND = 4
Pd        3.84630050710346    4.66899572087357    0.00147449173748
As        5.67245909016649    5.91756871334393   -0.85680702365832
Br        5.46064441584959    3.40224351703412    1.27167744253372
C         7.17976816661661    4.82853196533243   -1.53854489061031
H         8.02543382973405    5.48669683515298   -1.75602637607973
H         7.46711879254986    4.13335732314607   -0.74165763722704
C         6.74554270881517    4.08018649724977   -2.75546351188674
C         7.18828830309213    4.37258899272530   -3.97043017954577
H         7.92419102730177    5.14224795937682   -4.13830951812042
H         6.85071170921256    3.83730991476072   -4.84193055134063
C         5.73153594222234    3.00973742898657   -2.49911128260206
H         5.48213290924833    2.47621112832393   -3.41271531238394
H         4.80010583602042    3.45762750310070   -2.09466973438931
H         6.11085124475289    2.30101026776192   -1.76074328264166
C         6.56792441935457    6.90773050770864    0.60168674947876
H         7.35971874668654    6.26531971128454    1.00237453607934
H         7.00654908341057    7.82176493926170    0.18730052426156
C         5.55945563539126    7.23483793025684    1.65929630742678
C         5.54316028646074    6.62135690394447    2.83497357451543
H         4.80860934909794    6.85469676662314    3.58788568060270
H         6.27415048868051    5.87460860595418    3.09915037658660
C         4.55540904442230    8.27349803420198    1.25768367596381
H         3.88386126308169    8.51648010317366    2.07668566917082
H         3.96293558706121    7.90585250692321    0.40797022911006
H         5.06549344050180    9.18110881388149    0.93525521189551
C         5.44166721624824    7.21090420677774   -2.35563641649309
H         5.67115162732394    6.63024329041394   -3.25752483675770
H         4.38357436291756    7.48748621047057   -2.38778213817584
C         6.28484220435258    8.43911993195286   -2.27986425239811
C         5.78829573970328    9.59708251606050   -1.86395515716754
H         6.39131881972118   10.48852234288626   -1.81515102009521
H         4.75427680851972    9.70068869680568   -1.58011640261027
C         7.71418877113555    8.30493048030762   -2.71213140993396
H         8.20649984497284    9.27399479039642   -2.73109496446966
H         7.76668848600712    7.86547398424912   -3.70743572910636
H         8.26131432084564    7.65337930792322   -2.02705579834428
As        2.02016362033506    3.41917417024981    0.85669570138135
C         0.51343111347269    4.50864617081952    1.53860483332577
H        -0.33209961613483    3.85034735236537    1.75609973916392
H         0.22611973718521    5.20376012362764    0.74167166809899
C         0.94786688859338    5.25690621421967    2.75547936071048
C         0.50524430629375    4.96446814002012    3.97047899449185
H        -0.23070308585253    4.19485602947240    4.13838030020290
H         0.84283145088747    5.49977056625790    4.84195679437306
C         1.96198940080895    6.32721420290214    2.49898488380889
H         2.21158656850786    6.86069370796833    3.41257045286302
H         2.89326203044801    5.87921429048774    2.09424735402677
H         1.58261053166653    7.03600042101892    1.76071150871624
C         1.12529859433879    2.42905460502824   -0.60193847188198
H         0.33361310211154    3.07164674260469   -1.00250596674470
H         0.68673221259041    1.51501377403810   -0.18752263201023
C         2.13417964283841    2.10238288391015   -1.65926656857054
C         2.15063385703884    2.71603511471709   -2.83485089486616
H         2.88473879459059    2.48218278359349   -3.58803927805602
H         1.41921482138947    3.46226101665607   -3.09929571544355
C         3.13808572394500    1.06356391589085   -1.25769442154522
H         3.80966778154140    0.82059617798800   -2.07667240699115
H         3.73052629240898    1.43114804253220   -0.40793607263542
H         2.62796960211585    0.15594570681973   -0.93531977540793
C         2.25182372492699    2.12608660098995    2.35563845494617
H         2.02226247683622    2.70674628823418    3.25750333434228
H         3.30989411154751    1.84942553892190    2.38795828033754
C         1.40863763465504    0.89789390066939    2.27986993423146
C         1.90520624060031   -0.26008136068162    1.86402760889678
H         1.30216546751833   -1.15150304691882    1.81513030577524
H         2.93920066099811   -0.36365749240738    1.58009232540164
C        -0.02072225835356    1.03207078105547    2.71210471124818
H        -0.51302522576791    0.06300277123325    2.73106837639124
H        -0.07325132141041    1.47153223482356    3.70740269580037
H        -0.56784248813303    1.68360664744464    2.02701920299501
Br        2.23481757686923    5.93490063481654   -1.27191166070095

