71
CSD_code = OMEGOC | q = 0 | S = 0 | Stoichiometry = C24H42As2Cl2Pt | MND = 4
Pt        3.70005064479579    4.66518220185810    0.00100531510604
As        5.53261932093710    5.89596143583964   -0.87097495652145
Cl        5.29812132124640    3.52597054899102    1.22780698341005
C         6.43945064272036    6.95941632233069    0.51846285723809
H         7.26732251183496    6.35814356239207    0.90627867562403
H         6.83121729615912    7.87380770008408    0.05944352853889
C         5.46712717392851    7.28713290099040    1.60703569475571
C         5.55113896514347    6.75227661143713    2.81588988991827
H         4.83534956765435    6.98010424620800    3.58752192877554
H         6.33658460946276    6.06447228225696    3.08084895876552
C         4.37508131358343    8.22691214610783    1.19895807744244
H         3.72650593185475    8.46743191242233    2.03669595915647
H         3.77643578276542    7.75842906784884    0.40682064298636
H         4.79962314100768    9.14814835351209    0.79990747152718
C         5.18866638355192    7.11851332025737   -2.39803693768406
H         5.39464345692170    6.52169062051484   -3.29344970809749
H         4.11936467772808    7.34510550489482   -2.37246207474439
C         5.99087134652935    8.37380812970693   -2.39841665338631
C         5.48015385396072    9.53258253860681   -2.00334325782949
H         4.45417894757549    9.61907787283505   -1.68656389407722
H         6.06132424508333   10.43997865621498   -2.00284123411585
C         7.40672265199307    8.25393252758062   -2.87556536914920
H         7.90686046466067    9.21947277629401   -2.86523257741174
H         7.42638696432499    7.85984301746133   -3.89127512271363
H         7.96480992862897    7.56401380981097   -2.23897592151106
C         7.03842621864180    4.79674053465501   -1.52587817999391
H         7.93723835827697    5.41581868394245   -1.60178895542811
H         7.20104772538282    4.03052361816022   -0.76054095520985
C         6.69563185919418    4.16644676842113   -2.83345468994420
C         7.30435698019754    4.49117550791391   -3.96574491778388
H         8.11096069555574    5.20569307384328   -3.99642291647745
H         7.03495167545740    4.03786066787344   -4.90502462353264
C         5.58288430730399    3.16993433093300   -2.76605976361075
H         5.35781701138287    2.75595347397876   -3.74566997357530
H         4.67743099113393    3.65161024623765   -2.36542956368742
H         5.85047001854625    2.36094313879304   -2.08634333780614
As        1.86845290617758    3.43191004434951    0.87091287645925
C         0.96140461861364    2.36852330058492   -0.51845876422258
H         0.13358924987433    2.96987105738669   -0.90628445521234
H         0.56954585919693    1.45416220063714   -0.05946615722019
C         1.93367002318204    2.04068751081371   -1.60705433406050
C         1.84977757056877    2.57565806592109   -2.81586624255260
H         2.56564883023833    2.34791771890056   -3.58744645078004
H         1.06449070472706    3.26366950719413   -3.08076323327168
C         3.02562340637976    1.10078648281485   -1.19899679623001
H         3.67426566750762    0.86035592696026   -2.03670624690511
H         3.62424622483246    1.56904376875512   -0.40671783149199
H         2.60096805423191    0.17952954585711   -0.80012794305627
C         2.21220378429286    2.20938426947450    2.39803922521796
H         2.00619378971252    2.80621342136333    3.29343750133556
H         3.28150758506576    1.98281229316316    2.37249044785820
C         1.41003508835232    0.95407765366631    2.39845040064190
C         1.92077555517488   -0.20468703547232    2.00338322932680
H         2.94669741582471   -0.29113827964634    1.68642438228180
H         1.33953283573887   -1.11203574484420    2.00261126071715
C        -0.00586245047878    1.07395227152934    2.87545979585397
H        -0.50598557462554    0.10840563198656    2.86508533308419
H        -0.02559455876716    1.46803350757698    3.89116890005547
H        -0.56392449565556    1.76386847535361    2.23884384234551
C         0.36257594137349    4.53111088153548    1.52587304740349
H        -0.53620135421002    3.91197066349263    1.60174705294004
H         0.19985127114266    5.29734489579030    0.76057722160507
C         0.70513580964842    5.16147202595451    2.83347889487893
C         0.09625673124603    4.83681139067435    3.96571360847884
H        -0.71026967281582    4.12220370712096    3.99636450547981
H         0.36561010952119    5.29012164086909    4.90501371862194
C         1.81787887263887    6.15799356499920    2.76617847422987
H         2.04280212452301    6.57202479711850    3.74580281349163
H         2.72337544692256    5.67632910979819    2.36566347681172
H         1.55032588450877    6.96695608231998    2.08641766555491
Cl        2.10266976021470    5.80185153478712   -1.22842961862182

