71
CSD_code = OMEGES | q = 0 | S = 0 | Stoichiometry = C24H42As2Cl2Pd | MND = 4
Pd        4.68669345019189    1.78107161106226    4.71195651086361
As        6.02964283128447    0.67227086219138    6.27456885338492
Cl        6.60764532726695    2.32541990565885    3.61475393682696
C         7.15159313135692   -0.73544893172772    5.47501476467242
H         8.07735772565420   -0.25825192837682    5.13944899316972
H         7.39029130008522   -1.48044275019341    6.24426236720700
C         6.43021019654246   -1.34848592530443    4.31593263481272
C         6.83585378339201   -1.18698059194138    3.06513621492452
H         6.30319677323110   -1.61912296236513    2.23449729708338
H         7.71957376922818   -0.62079908381089    2.82290000240891
C         5.19086228270499   -2.10970249298505    4.68100516773981
H         4.74726068122347   -2.58793298659502    3.81185778574635
H         4.45855958745570   -1.41721756818547    5.12003971015315
H         5.41939805919132   -2.87441241422250    5.42396872139297
C         7.45781017217568    1.80185878505132    7.02573359338037
H         8.14804082177643    1.19287126128268    7.62147974454934
H         7.99881564016153    2.17331927761231    6.14416726307981
C         6.92474642072448    2.97112163099530    7.79493415158892
C         7.42520827400884    3.35297479785306    8.96115081887519
H         8.25141589309283    2.84122725772003    9.42723135566149
H         7.03801603562797    4.20733683744272    9.49067078166910
C         5.79399411007786    3.69255513393203    7.12676090967322
H         5.63000632428637    4.66772548560070    7.57878992034186
H         4.86117562723205    3.10888567993586    7.21811841262607
H         6.01940570718570    3.82214291385455    6.05867141017844
C         5.17353277776151   -0.15712625105942    7.87360394446321
H         4.68191606563412    0.66549799732392    8.40376131681680
H         4.39210391297712   -0.81828444415994    7.48703332952386
C         6.10771600278210   -0.89017114191118    8.77303578686103
C         6.43632578585499   -2.15992625288755    8.56622411665435
H         7.11074474872460   -2.68549112870796    9.22117208491654
H         6.00885467647501   -2.73326091567351    7.75942817777374
C         6.62040103233979   -0.12465256006066    9.95537643658811
H         7.49548387629867   -0.60428609992594   10.38719641182524
H         5.84238124561072   -0.08312852105586   10.71878525607048
H         6.86212111471729    0.89988998316071    9.67868995646322
As        3.34376228508359    2.89012207270075    3.14794191517771
C         2.22131382138076    4.29727978234435    3.94788572524057
H         1.29547190876105    3.82023064008443    4.28352317826602
H         1.98265872949051    5.04230762604760    3.17866297376710
C         2.94298712322162    4.91009853054685    5.10693762760400
C         2.53747655594114    4.74846163958725    6.35775262290907
H         3.06949027215470    5.18160898927956    7.18826713172533
H         1.65310487979595    4.18325179180919    6.59991221464429
C         4.18200878681086    5.67185890125679    4.74184667182280
H         4.62562152709547    6.15011642778442    5.61098308166339
H         4.91438269498981    4.97953203031615    4.30273151622354
H         3.95332482883312    6.43656862439483    3.99892421983087
C         1.91531004385670    1.76043832510855    2.39719599768599
H         1.22502405029435    2.36936259092171    1.80144909734013
H         1.37420616641365    1.38886185551526    3.27867417765385
C         2.44835098158280    0.59118863920117    1.62789520257352
C         1.94778843533792    0.20932721106000    0.46170944278713
H         1.12149673301724    0.72101602884184   -0.00424438535658
H         2.33475132797790   -0.64519081602611   -0.06774008952246
C         3.57903173701466   -0.13041457727955    2.29602007601522
H         3.74293919095913   -1.10560975762397    1.84399545250995
H         4.51189662689451    0.45318151721739    2.20461369033270
H         3.35363241283043   -0.25997858399565    3.36412454944375
C         4.19981580789741    3.71935377554490    1.54897904864913
H         4.69163178905738    2.89680141197022    1.01884992175596
H         4.98096780594028    4.38071123038002    1.93583363887969
C         3.26505535714069    4.45215936015513    0.64991608812250
C         2.93603674787499    5.72182954995482    0.85686309196825
H         2.26253878810864    6.24758893114849    0.20114061992579
H         3.36409498804482    6.29544403874923    1.66305760782053
C         2.75283251234808    3.68666150051638   -0.53267642468449
H         1.87768520293194    4.16611319518157   -0.96459545119568
H         3.53095970155717    3.64535734874962   -1.29600347101417
H         2.51131881899083    2.66202793289759   -0.25611325582984
Cl        2.76457619603505    1.23678776613209    5.80752835529662

