60
CSD_code = OMEKOG | q = 0 | S = 0 | Stoichiometry = C29H24BrMnO3P2 | MND = 6
Br       10.14692150170595    3.83136927030722   -0.28563736708505
Mn       10.32139062923311    6.28184813348174   -0.52080378073153
P         9.51872671649404    5.77669731578550   -2.57970028580309
P        12.35493203325363    5.78812331549297   -1.42523184122782
O        11.55323858999603    6.51323992990593    2.13114454215662
O        10.37421386412860    9.12363822996321   -1.17950061031347
C         7.60780942636587    4.62436996105653   -4.21018012658131
H         8.23293100517149    4.97813002427200   -5.01931413290662
C        13.64010257718746    7.07698733565297   -1.53487146751263
C        10.76832334690071    4.76283029744844   -3.48287443974791
H        10.66853791036808    3.74006581131063   -3.10021019472904
H        10.53704030954030    4.75002734708464   -4.55306413114444
C        11.07279157964791    6.42246203156605    1.09229737683888
C        13.34490193117215    3.15508307308382   -1.17447944739381
H        12.70983190351181    2.87694444885970   -2.00287136590020
C        10.40415730352598    8.00351344929017   -0.91229647120502
C        13.37015032620524    4.46328894327304   -0.70535932651617
C         7.97965693862160    4.85823315979703   -2.88728508653227
C        14.11379724026050    2.18858996102630   -0.55274856122233
H        14.08869248336608    1.17263670207863   -0.91710424485977
C         9.19514523162330    7.20900099128824   -3.66179852985771
C        14.14729684866887    4.78763375709132    0.40375441680018
H        14.14747373892645    5.80276599934675    0.78113581823398
C         8.50163119971855    9.49778493937267   -5.07288374641621
H         8.23753520517698   10.38854789433193   -5.62283675508278
C         6.43315784864344    3.95452499591764   -4.48843358719455
H         6.15089313825973    3.76984232877775   -5.51472014264667
C         7.81195696037916    9.16592219378591   -3.91664075812099
H         7.00923437192095    9.79551869342333   -3.56293318643786
C         8.16046185051402    8.03065477555101   -3.21465949713832
H         7.63372702436529    7.76203171663834   -2.30419642056212
C        14.89819667480831    2.51615296603524    0.53979646452047
H        15.49211661722385    1.75606635732077    1.02478493339791
C        12.15917965513648    5.32650342097599   -3.21106687353618
H        12.29435038269084    6.27044226241535   -3.75503553809847
H        12.94482541075327    4.62780033753818   -3.51613515270018
C        14.91062636993223    3.81554107280642    1.02051058626368
H        15.51041742486589    4.07084040006388    1.88137204900077
C         9.53133132961398    8.68929535313053   -5.52050672279853
H        10.06978355530289    8.94799399448330   -6.42091002813079
C         5.97415290657203    3.77207625942163   -2.14054948515156
H         5.33751251941466    3.44500596611601   -1.33270680770015
C         9.88170889324852    7.54694147843158   -4.82029457212404
H        10.68776613738859    6.92978554154925   -5.19198317862933
C         5.61584588087773    3.52553218305493   -3.45404243562730
H         4.69727658550680    3.00301681455909   -3.67573702391537
C         7.15263080506141    4.43892151484576   -1.85427495714056
H         7.42890871705483    4.61708514645930   -0.82483677682644
C        13.58091836486518    8.19147990921486   -0.70694331813424
H        12.75148678774301    8.30681874444086   -0.01928403877170
C        14.72592137888412    6.91814585344163   -2.39222942168191
H        14.79963404659263    6.03819686284047   -3.01616685963915
C        14.57790680099860    9.15008606929614   -0.75358042400315
H        14.52143496559234   10.01439277285846   -0.10884716906500
C        15.71775261155641    7.87872903567263   -2.43815766324150
H        16.55580987762362    7.75227735239818   -3.10751773371165
C        15.64313377997368    8.99788676860872   -1.62364161365570
H        16.42030647492000    9.74619094708404   -1.66267994396617
O         7.72339879763024    6.93015228867027    0.66367482763742
C         8.72080521321354    6.61143529990432    0.18589222811342

