82
CSD_code = OMENOJ | q = 0 | S = 0 | Stoichiometry = C41H36ClNP2Ru | MND = 8
Ru        1.98569989148252    2.41802255191704   -2.44924964766287
Cl        0.92446804221236    2.42154745623026   -4.59471609623014
P         0.44824102462016    3.94021951935163   -1.78077680065170
P         3.43908961387128    3.93023149756383   -3.31871243123769
N        -0.17228315092964    4.86683970029129   -3.02750362386186
H         0.14911413800229    4.51882141240473   -3.93344366435505
C         2.84308591391025    0.35712607991941   -2.63828211840746
H         3.23261251091010   -0.14279928164668   -3.51481194740218
C         3.60987535539664    1.04777251213278   -1.67301070884552
H         4.68111936549015    1.20569312082622   -1.70988852851417
C         2.75961097684657    1.39055023516650   -0.58914219856863
H         3.08747030663189    1.76430699392473    0.37154169817391
C         1.46617279945149    0.86379361315727   -0.87588292771303
H         0.62596063939552    0.84635240761053   -0.19287116142579
C         1.51526470673389    0.23732675486621   -2.13506025187067
H         0.71719954079094   -0.33386970197235   -2.59081886552867
C        -1.02717218422309    3.11291472448710   -1.07249781100216
C        -1.66517755399239    2.24661077566807   -1.95728854352779
H        -1.27190248491269    2.13761885164002   -2.96183469345460
C        -2.77822275137504    1.53439248087958   -1.55555141477246
H        -3.27059324114454    0.86527649044367   -2.24600192474735
C        -3.25840211767795    1.67663328389101   -0.26281331917601
H        -4.12521640959869    1.11710457718580    0.05727054134300
C        -2.62657713905464    2.53638534903558    0.61954905988601
H        -3.00227748057595    2.64927479565952    1.62655939967143
C        -1.51315802422723    3.25618417176794    0.22018433394282
H        -1.03149204178561    3.93097845126205    0.91450049948604
C         0.92739497042214    5.13365789763251   -0.48897349840787
C         0.94474344068325    6.50908310819575   -0.68285751104365
H         0.56967846209971    6.92674062171108   -1.60534292762680
C         1.42220161517431    7.34278487079349    0.31322524824001
H         1.43576633409875    8.41154494101628    0.15568868610145
C         1.87797320159874    6.81478206522142    1.50903273743519
H         2.24859618630003    7.47002784172185    2.28355823196549
C         1.85742289252642    5.44375497834020    1.71178536844199
H         2.20790360471985    5.02915720749546    2.64649055607920
C         1.39486777324809    4.60909885034599    0.71336551938874
H         1.39045466785990    3.53486764680094    0.85056108321040
C        -1.32470433154913    5.64378580471709   -3.09780952572156
C        -2.03554410869101    6.02274871153867   -1.96353351952006
H        -1.70939889909754    5.68002085606186   -0.99313585060408
C        -3.15164207876238    6.82979810189416   -2.07960673227864
H        -3.69579420406046    7.11286875529741   -1.19032638016380
C        -3.57268153924253    7.27350825489190   -3.32136726960833
H        -4.44483004126034    7.90380268294254   -3.40714496145960
C        -2.86747568730294    6.89869763916368   -4.45384415211992
H        -3.18964012312819    7.23699984582341   -5.42778520465371
C        -1.75384222234210    6.08938436799488   -4.34784239535400
H        -1.20386151791295    5.79092249931552   -5.22899249103920
C         4.78909605675025    3.07045608722863   -4.19475515236847
C         4.42197770122465    2.09333260148353   -5.11962438353702
H         3.37154916845362    1.89562180424542   -5.29448006732880
C         5.38857378089785    1.37556645535293   -5.79790950008956
H         5.09628750143739    0.62493590542144   -6.51820439786565
C         6.73099206285698    1.61237314398216   -5.54730555630842
H         7.48772081799218    1.04752439818629   -6.07186664819929
C         7.10043635297726    2.56696926598567   -4.61510991154999
H         8.14624575490299    2.74532127819840   -4.40964868286105
C         6.13684094113519    3.29537668975066   -3.93851275417030
H         6.43517383518948    4.03331626810302   -3.20745830155720
C         2.83411684173901    5.12142627454112   -4.56373389650725
C         2.83644537375495    4.87220604849807   -5.93057830543480
H         3.29339366293599    3.97547081762207   -6.31991424965593
C         2.24907716777358    5.77790619895510   -6.79760557849197
H         2.25141630521593    5.57770044666029   -7.85904830556657
C         1.65409293721354    6.92983356059582   -6.31213808565963
H         1.18960868681453    7.62792870589405   -6.99309546771599
C         1.65554993915836    7.18682377296088   -4.94996772607674
H         1.19299560865801    8.08503181532110   -4.56696566436747
C         2.24121310784884    6.28719769618754   -4.08089604822841
H         2.25255322931774    6.47623627144965   -3.01589161781074
C         4.33832155512822    5.05599022386670   -2.20181024485419
C         5.04767516387233    6.15566958589222   -2.67864255861710
H         5.07311489188959    6.35761452840960   -3.74088535710680
C         5.71098512900761    6.98404218407369   -1.79339533101934
H         6.25855945710990    7.83813796819018   -2.16493364245751
C         5.67535793704888    6.72333582481481   -0.43181729623400
H         6.19128614370413    7.37773451405033    0.25537900378141
C         4.98113961369671    5.62491686876651    0.04507488074085
H         4.95443807794314    5.41843618497197    1.10491982924606
C         4.31689388913930    4.79460842816138   -0.83940430714874
H         3.76167266561867    3.93551180966679   -0.48696653975216

