78
CSD_code = OMENID | q = 0 | S = 0 | Stoichiometry = C35H38NOPRuS | MND = 8
Ru       -0.71586871777233  -12.34625937970009  -15.74532605825441
P        -0.02893484718275  -11.40303710002605  -13.78309974633232
S        -2.83081002315942  -12.98716434098575  -14.66897341652046
N        -4.05013942435487  -13.80705834912234  -17.05806795333876
O        -1.77010142954686   -9.76268933396263  -16.81245910499597
C        -0.58637219380093  -14.45599937085725  -16.58168698108832
H        -1.33529565893797  -15.23609993794734  -16.52464423659370
C         0.45649478152895  -14.25403303125063  -15.65076073759122
H         0.69921173055916  -14.90269965679393  -14.81924366755950
C         1.29013278234238  -13.22622708764479  -16.16877822429881
H         2.25565853923227  -12.93311678133576  -15.77158418784088
C         0.73165378054976  -12.78252046258902  -17.39897372038421
H         1.22609099368839  -12.09642794831735  -18.07301511247144
C        -0.44290157171589  -13.55391438233378  -17.67248785111186
C        -1.29464096435115  -13.64453500234874  -18.91049735459583
H        -2.13907292224882  -14.29186438606796  -18.63845268827217
C        -1.91418231311143  -12.31120766603775  -19.35551635159607
H        -2.38217123501547  -11.83347222810162  -18.48983188902377
H        -2.71242541805874  -12.53762799319554  -20.06630075670331
C        -0.93049477305933  -11.35281132900514  -20.02284315336439
H        -0.17445640565637  -11.04446291016194  -19.29401931397673
C        -1.65683022419474  -10.09568470071311  -20.49372143875700
H        -0.96195232882055   -9.40758553314846  -20.97116280151823
H        -2.11862735401299   -9.58915314721520  -19.64969945388818
H        -2.43533932684614  -10.35018244771040  -21.20979042511861
C        -0.24131429935809  -12.05876889016713  -21.19042112421249
H        -0.98782574252960  -12.28767102712949  -21.95525975390395
H         0.49985812192367  -11.39292187831515  -21.63977738400177
C         0.43285182737835  -13.35392159290273  -20.74404736239773
H         1.22731646290071  -13.12753337109174  -20.03336470692397
H         0.89185485201095  -13.83537294713410  -21.61044065544088
C        -0.58942129867499  -14.30225491595088  -20.11967896671096
H        -1.38538169673089  -14.44050226972332  -20.86177323362789
C        -0.03703092526303  -15.71059238608182  -19.80778975899203
H        -0.68894666462182  -16.15413102863849  -19.04574273264982
C        -0.11293090997573  -16.59489494661378  -21.05378854031720
H        -1.13950386941266  -16.68665212997092  -21.40107702928682
H         0.26252796866564  -17.59221899987339  -20.83483935751820
H         0.48680843845626  -16.17610209746600  -21.85906030386269
C         1.39341744385156  -15.72714743887257  -19.27025222984513
H         1.65849679765898  -16.73985261287288  -18.97180962833322
H         1.50485856397542  -15.08244820086212  -18.40390190069525
H         2.09770583447648  -15.40835079038298  -20.03479402270827
C         1.13769143105601  -10.00989766170318  -13.90679412625523
C         1.57357515415339   -9.33433704322644  -12.77017935012018
H         1.21296329556665   -9.63345449518771  -11.79604411170150
C         2.46201634640877   -8.28269426076892  -12.89335170416811
H         2.79989197245754   -7.75868565075817  -12.01137853394307
C         2.91740948654149   -7.89749345162478  -14.14515032845526
H         3.60975778573882   -7.07383180652634  -14.23612817491417
C         2.48186411570407   -8.56417682854367  -15.27822405034451
H         2.83252504785763   -8.26088247401457  -16.25359660235104
C         1.59284150398819   -9.61767053390326  -15.15974014124615
H         1.23398357729627  -10.14491131385340  -16.03794633915035
C         0.84976972226235  -12.62162634040895  -12.76299787066622
C         0.08646051827746  -13.65752752984171  -12.22440704310596
H        -0.98580240481220  -13.66007975890365  -12.38137968200012
C         0.69767230904204  -14.66513040730647  -11.50432645749370
H         0.10476911971042  -15.46420785027679  -11.08415157453862
C         2.07384504807584  -14.65317413019485  -11.32819379596481
H         2.55237366458155  -15.44320756354383  -10.76863823822374
C         2.83556679232540  -13.63381317665278  -11.87452142673707
H         3.90769764100488  -13.62963449644931  -11.74190206281257
C         2.22921873229694  -12.61885931999239  -12.59546247153955
H         2.82380483236429  -11.82380449666713  -13.02486276444092
C        -1.26682551198959  -10.73410884842789  -12.62447966081679
C        -2.35735543116921  -10.06227628937280  -13.16960608805683
H        -2.45301878749008   -9.99457069715488  -14.24678726005807
C        -3.31829206138207   -9.51039173476106  -12.34361134108564
H        -4.16676794465740   -8.99948930266071  -12.77295397430733
C        -3.19645399483154   -9.62377268548702  -10.96820471632802
H        -3.95033898322291   -9.19977707874185  -10.32178378009001
C        -2.11166170440032  -10.28825260580464  -10.42119446155181
H        -2.01794751626390  -10.37989022085354   -9.34884514372050
C        -1.14653264249712  -10.84338874006705  -11.24240126775490
H        -0.30999631616437  -11.37342686417969  -10.80773849023954
C        -3.53026645462202  -13.44792414584859  -16.09303896428498
C        -1.40680472401013  -10.75965816567083  -16.36392268493692

