74
CSD_code = OMEPAX | q = 0 | S = 0 | Stoichiometry = C24H36B10CoPS2 | MND = 8
Co        7.23520903932509    4.59506892640160    9.37410966785658
S         4.95690894755597    4.52218122162387    9.60915706629642
S         7.32081130772808    2.31201121936184    9.12783229418818
P         6.62351297224670    4.43191796754309    7.29973928542229
C         4.63511606558781    2.81797028255370   10.11308274477744
C         5.77398140680899    1.74440185853271    9.86446984089581
C         8.60464813475964    6.19882255370730    9.24679168595558
C         9.25072964657574    4.97914811335342    9.59991066933059
C         8.73889082410360    4.55427907115964   10.87774952883719
C         7.73237804172834    5.46381549834842   11.26707981358416
C         7.62540479710330    6.46763496505756   10.24452462920427
C         9.01116658834867    7.13691051594485    8.15570987885552
H         9.58934586182114    6.62311769352913    7.39198484001081
H         9.63301410711382    7.92806331551355    8.57992867474926
H         8.14736828669684    7.60258293455040    7.68403439374106
C        10.43843151517236    4.37088929479693    8.92617845732996
H        10.42007848752620    3.28719057349018    9.01978764035715
H        11.35411128387024    4.73851087629046    9.39395188821258
H        10.46767082368326    4.62258598330815    7.86815004001449
C         9.32227455894546    3.43652207422851   11.67861266678798
H         8.77473026194117    3.28355927356920   12.60461780028620
H        10.36043999591378    3.66952746817588   11.91927943949229
H         9.30801735471627    2.50347392828590   11.11602684146094
C         7.01916146078808    5.55829283201951   12.57755677259261
H         5.93931744689865    5.57988583841743   12.43455830400359
H         7.30995975934256    6.48371923971737   13.07779046091037
H         7.26382666284142    4.72390674501584   13.22900189642104
C         6.83811536461846    7.72822137169151   10.41018064465507
H         7.26238865478842    8.30716168378738   11.23331946526564
H         5.79931458121944    7.51439358467848   10.65840774576087
H         6.87261503899453    8.34076931370574    9.51267173947108
C         5.61680178677174    5.71336294829780    6.48948238796138
C         5.21365102360765    6.85682575290410    7.16244038029144
H         5.49327145195490    6.98366190763420    8.19723295774179
C         4.44013758735903    7.80666464746070    6.51808609594643
H         4.12661699195085    8.69533616931459    7.04611016148763
C         4.06423343190639    7.61353316454785    5.19978230413547
H         3.46027457612734    8.35360258854876    4.69599303639266
C         4.45369695276013    6.46494077590846    4.52696630567017
H         4.15095574138702    6.31011674728974    3.50170593822606
C         5.22526223813382    5.51534013557218    5.16793043583989
H         5.53341685779862    4.61638346267021    4.64987895816779
C         7.99601000396714    4.23691286874699    6.11188639888374
C         8.46806460450465    5.30725783228963    5.35935790129696
H         7.97845826900214    6.26872353219637    5.42733651083592
C         9.54638754171962    5.13744497957043    4.50938702859942
H         9.90465802873772    5.97223494433992    3.92423112059744
C        10.16557482764091    3.90241186005327    4.40859195721143
H        11.00913045871530    3.77389495510851    3.74657995790523
C         9.69888824320221    2.83239307492711    5.15550028037626
H        10.17670329314981    1.86725525082603    5.07500688095293
C         8.62104231473604    2.99775579856270    6.00500724983170
H         8.25773352612194    2.16928210226079    6.59691877983611
B         5.46826115400542    2.20738925341125   11.49519546406993
H         6.26143549022605    2.92394660206877   11.96988821575967
B         3.74032130871537    2.47387633253196   11.54049663228987
H         3.33055602796149    3.39308362406368   12.14672353124300
B         3.06963524914327    2.14275371520441    9.93358463210894
H         2.22927551378713    2.84644351002062    9.51136118060493
B         4.36409285124785    1.65485228137097    8.86111085886224
H         4.48054587843308    2.04534165184060    7.75872494846330
B         5.12516617770221    0.20559197521407    9.47929036196128
H         5.74077402618404   -0.46621898259913    8.73780675980080
B         5.78779480177655    0.53579815872119   11.08935951210194
H         6.83311816539964    0.08224282559000   11.37538180664202
B         4.44329585756835    0.96397828375944   12.18129707481556
H         4.48009264969367    0.73340694807577   13.33394854748738
B         2.94293159089111    0.92034860530563   11.21850042990538
H         1.90549094963772    0.65320065400466   11.70412276636347
B         3.34909776450330    0.41643604608779    9.55456609219306
H         2.61661408790172   -0.20090528315071    8.87262724292462
B         4.22909818227330   -0.29465457276397   10.93425634267206
H         4.11209192873752   -1.43038817610435   11.21686434114362
H         5.88510131496434    3.33720483108256    6.87168341353001

