33
CSD_code = OMERIH | q = 0 | S = 0 | Stoichiometry = C11H12N3O5PW | MND = 6
W         2.52299298536170   11.00969849655352    7.97385185923801
O         4.47951009092281   12.66382669528196    6.18080086069576
O         4.76587455449749   10.65383912811806   10.14233688740980
O         3.42123113769852    8.34223960313349    6.58146588231301
O         0.23469315347411   11.35155246170560    5.85091714549742
O         1.56323066259173   13.64165795320988    9.39200825466130
P         0.97023801979488    9.69671594680208    9.35903321713366
N        -0.97747893505303    7.73705411489028    9.51006917183387
N         0.52288334139315    7.90015980679975   11.41383508031491
N        -1.19686662599742    9.58288360636875   11.07431641184619
C         3.76705365501075   12.06009983707107    6.83661092237716
C         3.95549790755279   10.78311350730507    9.34972873240329
C         3.10098573885922    9.31556311184929    7.08415030452481
C         1.07058190715183   11.22830002695352    6.61816971881681
C         1.91972359077816   12.68780509940184    8.87705618425775
C        -0.37503451002337   10.52622791261700   10.34497393153203
C        -0.12368387678619    8.41861373782407    8.55923891510768
C         1.59074429610101    8.60328179550551   10.73364118210502
C        -0.41614098418647    8.82021659133579   12.03511550144216
C        -0.20301592795643    7.02137784947124   10.51107250637935
C        -1.87851557178517    8.66001502762377   10.18105724246919
H         0.08473905153376   11.22631454971882   11.05413771125262
H        -1.00952183328761   11.10258533212614    9.65930773189245
H        -0.74910419849950    8.91226267433461    7.80431759268634
H         0.50761112238023    7.68005813726278    8.04876196159306
H         2.29389877641116    7.87238017863749   10.31400252767389
H         2.13417691872485    9.22097103547884   11.45993704903140
H        -1.10933923852945    8.23558733625607   12.64769101088640
H         0.13328629378948    9.51169613643246   12.67946117269015
H        -0.89420990700399    6.41786876318505   11.10746455602765
H         0.50673615532753    6.35888966284275   10.00850596923989
H        -2.43152413936089    9.23073502875935    9.43006628373272
H        -2.58555361088535    8.07260885514679   10.77519652093380

