52
CSD_code = OMETUW | q = 0 | S = 0 | Stoichiometry = C23H24ClOPPtS | MND = 4
C         8.59456042961851    3.62466769038300    1.47543154914803
C         7.44187734356087    3.01440569954397    2.21646158618728
H         7.80150482016631    2.31031406111240    2.96580141724614
H         6.82729211357986    2.48793759827328    1.48551021619779
H         6.82805002745649    3.78588391379197    2.68024745389476
C         8.91263329463890    6.76956312800189   -2.61350576581183
C         9.06913909441442    7.49598736558470   -3.78491762827460
H         8.38031041962194    8.29276861997464   -4.02624722242957
C        10.10256698710371    7.18127930573329   -4.64861046203010
H        10.22613480022036    7.74546612066465   -5.56138437392673
C        10.96602294247781    6.13831031378107   -4.35231428448456
H        11.76749088365242    5.89352389247797   -5.03339376087921
C        10.79132905566347    5.40249863590994   -3.19235185165188
H        11.45156488557973    4.57966272646742   -2.96314570738891
C         9.76324173251966    5.71676851453089   -2.32169650112692
H         9.59598357514091    5.12577853669474   -1.41789208029126
C         8.08770292768571    8.86415746063303   -1.01950361459089
H         8.46148452417507    9.34567990608647   -1.92200848401912
H         7.17243028882008    9.36542916112826   -0.70365851560527
C         9.13656200566230    8.90746982871376    0.08167455949171
H         9.50137792021715    9.93638695806299    0.14853512240867
H         9.98843066844805    8.27860293648495   -0.20090378307421
C         8.59062444431476    8.47468295350813    1.44732467440897
H         7.50787366852990    8.62119989816349    1.47445251111955
H         9.03717852479009    9.07141453230054    2.24769383547685
C         8.42693581064461    6.48938551873581    3.52690471606412
C         7.38415425648328    7.20916002771482    4.09916753665036
H         6.86896979029336    7.96999461023726    3.53164920696941
C         6.99556676529651    6.95145787220556    5.40291587422929
H         6.18885134810431    7.51943561439672    5.84306683722011
C         7.63422409603679    5.96919901204803    6.14004040942121
H         7.32852984342236    5.77213929102291    7.15675316916633
C         8.66161087942245    5.23434473079513    5.56842253428762
H         9.15577503613221    4.46114152194301    6.13762295771756
C         9.05320450673989    5.48851487760722    4.26851097908021
H         9.84862744048837    4.91369066915501    3.81339706227307
C        10.76101135340141    6.73183872879296    1.98110444351431
C        11.54165437217073    5.96228658512472    1.12822000654645
H        11.05707156753483    5.33151988870959    0.39476094108891
C        12.92060042094865    5.98059619691698    1.24186592353409
H        13.52368290063848    5.37778644847883    0.57978868997879
C        13.52340484449216    6.76467842009617    2.21066140808250
H        14.59928271747557    6.77769176023407    2.30399705345197
C        12.74727468597657    7.52609089733842    3.07154913752112
H        13.21893825195282    8.12809379123192    3.83457607133745
C        11.37022107366842    7.51165107348644    2.95970377122596
H        10.76363709865761    8.09202314556845    3.64201201244625
O         9.72579298571555    3.23167834249114    1.49898196866173
P         8.95032400062957    6.69407504016080    1.79583567957594
S         7.56525171458192    7.17255800930681   -1.50849827846393
Cl        7.05807435571809    3.74180662145217   -1.07644070425534
Pt        8.09936050531347    5.17802154674177    0.34223170268073

