35
CSD_code = OMEWOU | q = 0 | S = 0 | Stoichiometry = C8H19N3O4Zn | MND = 5
Zn        3.11765341094839    8.60940131973807    1.08407014840961
C         1.49960086809860    6.79276733290575    2.83287867954843
H         0.53511359091230    7.11139936665840    2.43047283065938
H         1.33222016145214    6.23340509775900    3.76278704227584
C         2.18716052420385    5.90613705653471    1.79661937272518
H         3.17193486912386    5.60340094619097    2.16559731104649
H         1.58176088545005    5.00817050215962    1.60958677781469
C         3.14091029254381    6.10055572526898   -0.46313855942880
H         2.63633037508487    5.22763033091795   -0.90031184512662
H         4.10842515174649    5.78874763486898   -0.05785549880188
C         3.35194033935690    7.17109099720328   -1.53180677905573
H         3.93087150595860    6.76349833238025   -2.37111520639005
H         2.37404465371873    7.49354041509982   -1.89709824239217
C         5.31368109108335    8.92903310813730    2.05416653236536
C         6.65522346201800    9.30281355744956    2.65461479013068
H         7.10381181202167    8.43993463343905    3.13788063399268
H         6.52532191081257   10.11687984816572    3.36131056559757
H         7.31012680277165    9.64498456139714    1.85612104085801
C         0.52850187984493    9.33521883916496    0.05231639007495
C        -0.45302775016210   10.45788697618820   -0.26938409791110
H        -1.40536922110415   10.04350442995010   -0.58697477351783
H        -0.03611726014778   11.07359519894730   -1.06240913980099
H        -0.58594741568970   11.08235931815570    0.60954414117878
N         2.32104696159650    7.98354761275462    3.04281219358116
H         3.14346913369430    7.74161437658023    3.58854494200955
H         1.80858146137756    8.70163961821784    3.54365739205220
N         2.37203680533391    6.70731161264440    0.60402008527174
H         1.44691209540020    6.99880830179023    0.23905773927103
N         4.00837421468112    8.32089314858451   -0.91243786311987
H         3.97603880074144    9.13463420598246   -1.51739408187860
H         4.98309478715419    8.10043661876679   -0.72763358123567
O         4.50216501885940    9.85011614201325    1.78691129706573
O         5.03924725272466    7.73770636844823    1.82768465171178
O         1.63488053628151    9.71092807991729    0.54569268268054
O         0.20888099210783    8.16560838561951   -0.17858757166169

