77
CSD_code = OMEWOT | q = 0 | S = 0 | Stoichiometry = C16H38N4NiO14P4 | MND = 6
Ni        7.66247465927075    2.14296384859341   15.54097238913118
N         9.64540686586374    2.83024442005524   16.75872739875285
N         7.36963218057874    4.84501661488792   18.09139573466868
H         7.08115383648534    4.43111760426975   17.12800861992124
N         5.93520248099426    1.46915275380065   13.98113810981512
N         8.63173770480601    0.41308214496652   12.46305581128051
H         8.69135440418917    0.55456598173826   13.51964675039364
P         9.54456101008107    3.85290140662468   14.20915537052038
P         9.74608731020685    0.17503703115879   16.11044128839892
P         5.83984126897518    4.19594055459934   14.71722005696129
P         5.33293842064977    1.42208767047543   16.74455947705599
O         8.36722209644860    2.89572175825206   13.97809093326313
O        10.37399295491456    4.02810876558957   12.99904501469103
O         8.98073595064134    5.22588695101878   14.83729622136868
H         8.08664421023700    5.37502689656827   14.45822729659642
O         8.59067574943450    0.50243328891369   15.16298399930942
O         9.20882364687803   -1.03890110490943   17.05174645146908
H         9.92951150554510   -1.65616774071520   17.16982095490231
O        10.99577425685554   -0.24564322284246   15.43771656600298
O         5.52978533421356    7.01394635452776   18.40049779836736
O         6.73490579555514    3.71489691016288   15.87668953387075
O         6.38677944964771    5.36531806077088   13.99752887243274
O         4.44193179433286    4.55153037603930   15.39907465689383
H         4.25190586342202    3.83057891287872   16.04915503217704
O         6.81976801166909    1.45110670868016   17.08675830569204
O         4.48094749591780    2.58119166523375   17.11492639609985
O         4.76286055289509    0.13460088039997   17.54550341900748
H         5.46981078401879   -0.49534810707167   17.68347610321385
O        11.09212357226606   -0.92878397313111   11.85007506087633
C        10.51105903587663    3.13252293604817   15.61874882347342
H        10.92908893360534    2.20925072015957   15.21559487873715
H        11.35363453124447    3.77752783242332   15.88824413667778
C         9.98886257130571    1.54484525344318   17.34384578398366
H         9.33611317406318    1.33268940313510   18.19192488852802
H        11.03972906524067    1.51308680469613   17.67561830377415
C         9.70201741839332    3.90910046720715   17.73807617798617
H         9.83255532125225    4.83840925461284   17.18545879717803
H        10.58063399580364    3.77902857115388   18.39336261516682
C         8.45051828664614    3.98435054743032   18.61713978543329
H         8.02629585901564    2.98005764902683   18.70209022271738
H         8.72048770644411    4.35224737379511   19.61292551278679
C         7.76222092244004    6.24978696918039   17.87950820096649
H         8.51506070854396    6.30716137637948   17.09414419369422
H         8.15840725796889    6.65061460508624   18.81871914337031
C         6.54976685211947    7.07225317580114   17.43460350098776
H         6.82871706174881    8.12230563219831   17.33623894578085
H         6.18930505061223    6.70085264116666   16.46430126111946
C         5.07109922415867    5.68748478480613   18.52212588862096
H         4.66467099414655    5.33905303412383   17.56691864556661
H         4.27526479963511    5.69699992004094   19.26787227253745
C         6.19134852412926    4.75074706338411   18.97882938542786
H         6.50148619562534    5.01533044602732   19.99537004134099
H         5.81502698956536    3.72641620829161   18.95215070144806
C         5.09009444323887    0.83379331800725   14.98098594853360
H         5.33354945483422   -0.23091110585139   15.02306619364789
H         4.01838579935495    0.93002702120080   14.74371024520392
C         5.41316307902787    2.77222885389663   13.59333512862725
H         4.31569364760004    2.74841730672829   13.49456105137038
H         5.82671227170946    3.07302801741328   12.63126597923076
C         6.12769358324864    0.61956887241872   12.80463068092277
H         5.24822194139858    0.67348598601012   12.14122748451885
H         6.22518992626586   -0.41332199647487   13.14342758367719
C         7.36582971411290    1.01774575183948   11.99355607517975
H         7.22981728081264    0.73911382111337   10.94413112572105
H         7.50321691043423    2.09779604878957   12.06878438665865
C         9.78115006560769    1.10465623992301   11.83053675595507
H         9.80463257018831    2.14974236420605   12.15113444717831
H         9.65123305387197    1.04877167884438   10.74568550272845
C        11.09690023522255    0.43545150131179   12.21909090651705
H        11.92001506282434    0.90687817018552   11.68301243434585
H        11.26531689428653    0.52671746302537   13.29806960073742
C        10.07915497651872   -1.59249187521445   12.55989617944291
H        10.23850814112974   -1.48107088047223   13.64032545189895
H        10.13976867276264   -2.64724528561557   12.28537753199066
C         8.70340089404947   -1.03315266383162   12.17963298974688
H         8.54005482551425   -1.17883795246261   11.10651155790782
H         7.93443690936820   -1.56112673616834   12.74229902783784

