77
CSD_code = OMEYUA | q = 0 | S = 0 | Stoichiometry = C46H20Cl4N4NiO2 | MND = 4
Ni       -0.23142879427844    3.20921099870165   12.47149212922559
C         1.17725201766591    1.23597080457344   10.84963961979792
C         1.00712139727795    0.33233289488784    9.75099389043960
C        -0.27773916868928    0.50260944318308    9.30700053477276
C        -0.88194366425312    1.45386784955815   10.17972450524336
C        -2.24007069709841    1.75681802283802   10.18693633141979
C        -2.81824816476929    2.45568084459681   11.24117166454509
C        -4.22219906875696    2.57561208075808   11.45877654193427
C        -4.37420258038407    3.11724847646231   12.70770601958450
C        -3.05392535078817    3.38770514829211   13.19385140582163
C        -2.85881657521824    4.09929260797612   14.38195271094412
C        -1.65181546668154    4.78149127263429   14.56413760938730
C        -1.47302586901417    5.94233178098433   15.38987759221437
C        -0.22423847775181    6.40532698215373   15.15241375122798
C         0.37504394631297    5.50827974979774   14.20847004651464
C         1.71069116857606    5.56517534875312   13.82761831451098
C         2.31496547781953    4.55530537972657   13.08931720814455
C         3.72463300673893    4.47425436720514   12.84105177954664
C         3.94807572787440    3.27299303083044   12.26014314710213
C         2.66964290376563    2.63716981068936   12.11126511350367
C         2.43690392108820    1.44347241974226   11.41963024966386
N         0.03032957987100    1.91174414302909   11.09841131469721
N        -2.12093124761711    2.99664463384214   12.29492543169643
N        -0.52058482470372    4.54917358103820   13.83359078596152
N         1.68388080734580    3.45135897672195   12.59086581493551
C         3.46161738420101    0.44798618382313   11.14323369650845
C         4.57334706930423    0.30227054928587   11.97689920661643
C         5.55236419921972   -0.63475112944734   11.70537345402108
C         5.44313211404197   -1.46368178136852   10.59901388614085
C         4.31915643675880   -1.38026444169953    9.80048733685615
C         3.31813208637608   -0.45197206090810   10.06865311551760
C         2.09177306130241   -0.49416910403530    9.23627907982769
O         1.99379511902053   -1.18827312255438    8.23998742476797
C        -3.99053862048683    4.18303959859758   15.29366088929700
C        -3.80790945667994    4.43903183844298   16.65476353679586
C        -4.88572094505638    4.53363262833300   17.51492214016537
C        -6.17816187306813    4.36353402154798   17.04208720854137
C        -6.37486018421247    4.04355646678433   15.71279353756542
C        -5.29924928397526    3.92919322762697   14.83786672106209
C        -5.57497956438839    3.47150090504258   13.45451861710380
O        -6.70261919450053    3.36218589044685   13.00732984327745
C        -3.09928982595000    1.20818270725679    9.11609389182928
C        -3.12842872179044    1.80326755430579    7.85698000129217
Cl       -2.15335257296628    3.20126147960002    7.57996069133684
C        -3.92398116766612    1.29973199073991    6.84085963621655
C        -4.70191965341152    0.18041529422093    7.08039370136930
C        -4.68812033951587   -0.43600084091477    8.31965923050869
C        -3.88877845845416    0.07928588548509    9.32677577128557
Cl       -3.84588601708090   -0.69386066090123   10.87109225461192
C         2.53932723797733    6.68785541667090   14.32199435406099
C         3.39003286230668    6.53447323156047   15.41454798691197
Cl        3.46424981516960    4.99896083994305   16.20306206884112
C         4.16149841774350    7.58609825353913   15.88115474885664
C         4.08576458914185    8.81547124653462   15.24943999646213
C         3.24777254580147    8.99895398227126   14.16333006345594
C         2.48137342844111    7.93767458744175   13.70939374441562
Cl        1.43167660304610    8.14708325319524   12.35347718874878
H        -0.75905527076272    0.00854470693411    8.48614891717520
H        -4.99364726027471    2.27397392957449   10.77824717655998
H        -2.22878959936665    6.38448717075078   16.00753869426338
H         0.26022522919794    7.26447499944467   15.57395960481388
H         4.43621697550170    5.23809222588460   13.08708849057823
H         4.87776790573947    2.88376858608294   11.89595356038008
H         4.64988442496983    0.90539464268548   12.86836445882144
H         6.40249825155637   -0.72384687573959   12.36571581646259
H         6.21537774920068   -2.18526807725780   10.37996082680591
H         4.18103458932140   -2.04056705965085    8.95696165242217
H        -2.80682042504247    4.52583360198035   17.04800629483373
H        -4.71540163814902    4.73439452318335   18.56250290868934
H        -7.01990137943715    4.45274753748868   17.71181951587601
H        -7.36467845385802    3.86013364689049   15.32136036114590
H        -3.92898887524441    1.78185416273999    5.87679075813783
H        -5.32315131537143   -0.21704395568936    6.29331048184889
H        -5.28825947541578   -1.31111665874153    8.50929115781982
H         4.80956549827236    7.43868347485171   16.72993413504572
H         4.68425061508365    9.63806565063318   15.60813934671845
H         3.18428535909639    9.95434922811595   13.66825730449852

