66
CSD_code = OMIFIB | q = 0 | S = 0 | Stoichiometry = C34H27BrCuN2P | MND = 4
Cu        1.28107715612493   19.27608015681995   18.47154367331764
Br       -0.60701012799704   19.93017445099460   17.41513232973205
P         1.18829985076020   17.23447500402465   19.47780774699746
C        -0.30902181121568   16.58389604922764   20.28881477363340
C        -1.46541824678126   17.35496840143740   20.25376028198039
H        -1.45472521602292   18.32113876411925   19.76768823350124
C        -2.63118846549481   16.87317192338945   20.82434769894533
H        -3.52988493875072   17.47035089594042   20.79184449776673
C        -2.64232095232382   15.62764253904298   21.42874890196146
H        -3.55116617377319   15.25083084929854   21.87453043607218
C        -1.49035892981606   14.85468674664424   21.45699309986164
H        -1.50479679513671   13.87903136599076   21.92138194928394
C        -0.32487873186297   15.32498822648055   20.88433388084351
H         0.57378075397527   14.72284346993795   20.89436489546521
C         1.42997475353254   15.94097208244741   18.21920026654723
C         0.69425629910189   16.10896864119814   17.04766309056435
H         0.04680236219871   16.97107371892500   16.94556136397864
C         0.78895150206592   15.17977607052260   16.02957348660991
H         0.21634969640573   15.31353233217858   15.12380249078579
C         1.62007541969714   14.08010229299789   16.17417619476272
H         1.69927553732856   13.35364320252393   15.37877740512380
C         2.34850930665361   13.90883460791365   17.34001584859131
H         2.99175958868342   13.04779700646357   17.45367322322937
C         2.25558486894008   14.83284874371806   18.36576882618807
H         2.82676718623010   14.69177022269885   19.27337229323653
C         2.51048889229029   16.96127320455754   20.68512046193484
C         2.27184805006022   16.98962785239998   22.05661801969197
H         1.25290764685566   17.00786392889176   22.42018729344844
C         3.33032999594855   16.98319086887163   22.94612260981546
H         3.13906439877264   17.00214452543031   24.00920440535582
C         4.63384712982388   16.96359601246139   22.47794929013732
H         5.45799697357970   16.96318213462673   23.17570242835221
C         4.87996177419781   16.95018421771865   21.11376652766551
H         5.89649170130502   16.93952740420182   20.74704141450477
C         3.82651135772492   16.96297426979045   20.22109228559976
H         4.01185971832908   16.97310317691262   19.15359238097782
N         2.88084429697925   19.16758277753052   17.17015981521009
C         2.83561973946886   18.90902681704664   15.87254206652191
H         1.92099092959424   18.45765369737098   15.51251758524896
C         3.88688959383807   19.19005839716016   15.02056638991201
H         3.81650976885947   18.95416243664736   13.97120504247212
C         5.02750410355990   19.78557143881963   15.54989583547038
H         5.86376489404022   20.03177128073927   14.91256397780940
C         5.07167917147443   20.07079036172434   16.90051102439492
H         5.92899052795312   20.56121218382196   17.33410150552393
C         3.97240578392550   19.74422392146267   17.69537303783790
C         3.90003147193129   20.00718093144150   19.12735982040559
N         2.65613332985603   20.11825223560820   19.62966638366055
C         2.49711237815004   20.31699750609780   20.93110932029679
H         1.47294519378503   20.42937549847745   21.26243962153859
C         3.55197942561170   20.41765906931466   21.82860994792746
C         4.84720996429508   20.30321986378497   21.30445828337484
H         5.70277653986399   20.34867873684790   21.96081556423265
C         5.01916173758658   20.10155136853722   19.95296274989707
H         6.00814122987083   19.98454998643116   19.53814006079378
C         3.31997037551780   20.64428395932094   23.25786661492122
C         2.22498158994770   20.07041959405098   23.90163542548641
H         1.54524138607436   19.44523796885870   23.34291153769633
C         2.01783425962228   20.27561119445846   25.25241412531538
H         1.16784766189320   19.82032293462868   25.73909668577381
C         2.89429456564163   21.06235391750762   25.98143068753903
H         2.73012012258118   21.22326040298212   27.03634905160594
C         3.97983400454359   21.64570949966413   25.34979414054973
H         4.66131259536557   22.26847841383316   25.91050408556656
C         4.19328489125414   21.43743328942682   24.00027885628320
H         5.02988693591614   21.91530495644535   23.51174674943259

