65
CSD_code = OMIFEW | q = 0 | S = 0 | Stoichiometry = C21H36Cl2NO4Re | MND = 6
Re       -0.64219752135334   17.38710609247501    1.32919878621248
Cl       -2.00746105663320   18.37341045800776    2.89319255955326
Cl       -2.46059422637352   16.33163242086679    0.43612518634851
N         1.56790394766536   18.52900921264747    1.75709865057755
O        -0.10999616719709   16.11068860564281    2.24208110959782
O        -0.69606122686170   18.79746968895600    0.27966880160837
O         0.99364831227050   16.52785976126152   -0.38733344641871
O         1.54997248783231   19.86421750061143    4.66762141070045
C        -0.22058094049973   19.90661042900965   -0.24759513110733
C        -0.72696563658030   20.46124940300685   -1.43990187780040
C        -0.15106221567842   21.63457070999219   -1.90429370437641
H        -0.53727842158222   22.06479481111356   -2.80920419099930
C         0.89385215934699   22.27808155058720   -1.25370892576611
C         1.38158799110851   21.70081325520118   -0.08711833132855
H         2.19184870671134   22.16677250236839    0.45380518420865
C         0.84762715355815   20.53479810465396    0.42550798976224
C        -1.86973897764704   19.77086647272930   -2.17113482323144
C        -2.30436822079395   20.52820112667949   -3.43044970281363
H        -2.65942451404291   21.52718109084159   -3.18748442289125
H        -3.12320243914964   19.98902976219946   -3.90172175674798
H        -1.49319377114761   20.59894742649044   -4.15227486763407
C        -3.08526501884585   19.67430072324958   -1.23792242863467
H        -2.87783595304830   19.06388735723496   -0.36342383079431
H        -3.92064568252651   19.21842606133606   -1.76398724438502
H        -3.38339022487686   20.66636534432124   -0.90280209042047
C        -1.41628380829611   18.36721112621638   -2.59919240245648
H        -0.54462961749207   18.43258524186408   -3.24969529421225
H        -2.21775806081862   17.86820463194994   -3.13877831203010
H        -1.16322309084702   17.75094826745219   -1.74105116737161
C         1.50881937039318   23.57354805988732   -1.75950137853729
C         0.86511042898391   24.07016731505646   -3.05671862001184
H        -0.19320103657778   24.27539596453510   -2.91524269171954
H         0.98617381386354   23.34550897285533   -3.85859424097646
H         1.34625587608934   24.99548712336041   -3.36668696396239
C         3.00499526858472   23.35150183627112   -2.02366685903096
H         3.45702630945789   24.26605514242242   -2.40103553557046
H         3.14419910841297   22.56710327006135   -2.76487085315690
H         3.53049817640555   23.06314722909163   -1.11758155123692
C         1.32473703257150   24.65858531577171   -0.68893008774565
H         1.73929835588643   25.60202688725134   -1.03732124255919
H         1.82169360553195   24.39024710264914    0.23902037128277
H         0.26723661497395   24.80232916493106   -0.47875279279660
C         1.36846701165681   19.98843158878712    1.73205722358794
H         0.65646682568131   20.23346565804530    2.52599374606878
H         2.31792951300273   20.49180684545884    1.97081917055642
C         2.44631898608160   18.11702357694495    0.65453639965448
H         3.50120253791795   18.28029742360904    0.92127939251727
H         2.21304944352501   18.73574997302542   -0.21717016228222
C         2.25789862718401   16.65953491357323    0.24065831935603
H         3.04552923845520   16.37770283194880   -0.47326447743317
H         2.30868137984726   15.98938226010827    1.10881664958664
C         0.70286347402085   15.19704610594568   -0.77782019836252
H         1.44043147797377   14.84998911025582   -1.50887242543615
H        -0.28959937726534   15.21169486045561   -1.22422220001358
H         0.69553223345765   14.53072398891322    0.09006636547502
C         2.13939148484021   18.10227000073057    3.03891028467325
H         3.16566309461001   18.49309454769212    3.13262597998088
H         2.17625817353309   17.01199183786849    3.03270959494815
C         1.32821145271438   18.52894066139137    4.26958981232018
H         0.25952194950812   18.43882021661952    4.05614438412502
H         1.57139402488747   17.84898297865054    5.09575249952914
C         2.68300365931633   20.05584881555117    5.47555501010354
H         2.63011392714452   19.44328509306143    6.38332940703930
H         2.68815440717599   21.10856024891589    5.75131261848233
H         3.61618956399203   19.81971393937483    4.94904932438335

