97
CSD_code = OMIHEY | q = 0 | S = 0 | Stoichiometry = C37H54BFeOP3 | MND = 7
Fe        1.68769832226953    8.42777983833571    4.42206609124027
P         2.67765510138424    7.46175134806571    6.12163037461926
P         2.58928923359330    7.41790372082724    2.67318574276801
P         0.68381982031758   10.12738620898423    3.49498437383343
O        -0.81189859094769    7.25188574797604    5.33466293658647
C         0.16827827046716    7.74956078721920    4.95959967555831
C         3.24262045904963   10.07613238397604    5.36901380753666
C         3.30142517160934   10.64501436221627    2.82054615573881
C         2.24715939740602    5.57291540253189    2.52107381056983
H         2.66423677363574    5.21878690914024    1.57037165807299
C         1.97670520710121   11.06193275792639    2.58609748454813
C         2.71678072164228    9.25847866605836    6.41515631071691
C         0.09141330491709   11.34099995183606    4.80262733876672
H         0.92256749013564   11.29647513585057    5.51510480522562
C        -0.67395956575282    9.94492785354423    2.19917465216926
H        -0.10799686009098    9.82644489332034    1.26438213764992
C         2.43515547570755    8.03311210917622    0.88538465387682
H         2.26516770606467    9.11006459740432    1.01548195527900
C         4.79226397935187    8.57924573235900    3.57324214456545
C         4.31072521964517   11.23025032663677    2.05789363319524
H         5.33321553909593   10.91495513511759    2.21802652660892
C         6.14439924555250    8.79570016150277    3.81634460890520
H         6.45436855554681    9.66893518657790    4.37519387258543
C         2.73309307502853   12.60667983464787    0.89814266888916
H         2.50990939148973   13.36177082610137    0.15762333664002
C        -1.42086251462681    8.64287642881068    2.47739309382587
H        -2.04567483049314    8.74064531362557    3.36188058968717
H        -0.71221627164908    7.83561182732852    2.65433633321610
H        -2.06118076225757    8.37992913944422    1.63584080376212
C         7.09289869222302    7.89176244742169    3.36798664725471
H         8.14068198090373    8.05877572355440    3.57661485258243
C        -0.06329208980571   12.80100639580015    4.38964463245599
H        -0.94893472642250   12.96385627854076    3.78362228605368
H         0.81112862074320   13.14248998452659    3.84024624569148
H        -0.15645561231278   13.41305434065545    5.28658848365728
C         4.03917317396409   12.19830864286694    1.10918797643271
H         4.84249126350871   12.63403337782019    0.53164456516305
C         4.41461060276648    7.44556677420338    2.84196504485696
C        -1.14105146262338   10.81769199747663    5.53309573054452
H        -1.30454895762593   11.39723393223611    6.44091903575858
H        -0.99460999402205    9.77798097267638    5.81453878560604
H        -2.03816240472241   10.88902646216413    4.92407047174491
C         2.90992651983401    4.84859091228757    3.68540588339400
H         2.51392168740416    5.25952140102871    4.61582337495109
H         3.98943351491715    4.96961645547596    3.68426697140838
H         2.68050678678839    3.78383114319219    3.65256288732995
C         5.36588875541993    6.54964393734114    2.37323700785870
H         5.08042310112177    5.68044065194805    1.79744470893442
C         1.67643472247206    6.75912244242087    7.54556564448437
H         0.80544747361491    7.42986497914479    7.56033031788614
C         1.24255999780347    7.46136385079946    0.12442138506979
H         1.11314672638852    8.01005454423642   -0.80884609846274
H         0.32702614257150    7.55410417780003    0.69930318404227
H         1.40443304201789    6.41544712274761   -0.12684886145893
C         2.40006993026072   11.20855215281294    7.81391260330328
H         2.07370670867969   11.64409768394810    8.74770816312630
C         1.70734235618696   12.03310593031621    1.62932017962971
H         0.69359350683292   12.34645726094571    1.43555428190934
C         6.70511699865985    6.77335439614019    2.64737218497846
H         7.45004351604733    6.07310755944564    2.29589534614174
C         2.24788287105754    9.86065793320315    7.59404912094264
H         1.77333591127548    9.26451385954614    8.35704725664272
C        -1.69230545491873   11.06576721128146    1.99900341243669
H        -2.33488808112006   10.80426658213071    1.15738714431224
H        -1.23022820965825   12.02190363173776    1.77442865997174
H        -2.32744459161051   11.18252344163170    2.87243610768014
C         3.33302470872470   11.45748735609619    5.62553149200598
H         3.73825173612965   12.09510550074236    4.85137171924025
B         3.61558618912950    9.56620474384779    3.93752660111164
C         1.16652770225279    5.36534692373930    7.17839998860422
H         1.97890848459521    4.64291977340641    7.14733020534503
H         0.67444018651240    5.37876830845497    6.20853066712952
H         0.44301818330797    5.02896046536074    7.91989654309228
C         2.30482574824270    6.73205147134929    8.93859473185535
H         1.51879839328030    6.59574582636703    9.68178497718557
H         2.83603070888404    7.65034904895792    9.17282657897866
H         2.99618908867372    5.90028742903318    9.03962809828794
C         2.98371475600099   12.01158707274352    6.83457747921872
H         3.13827520674051   13.06485895652829    7.01981084516941
C         3.69976243189509    7.86217019134534    0.04847041815828
H         3.96473532467504    6.81255586818940   -0.05808981245805
H         4.53988283787682    8.39309523867053    0.48832621347249
H         3.52855153690014    8.26878296187721   -0.94807551235083
C         4.48802579999195    6.95889843507570    6.38544534298400
H         4.91255689188850    7.11582847550202    5.38766268000528
C         0.75066731878871    5.28658072362650    2.58529359239087
H         0.57777104183701    4.21561608585114    2.68503363825061
H         0.21872030246390    5.62967125109543    1.70536002455089
H         0.33338130845802    5.78423773424147    3.45915798782681
C         5.24448745974416    7.86914635920083    7.34998682516584
H         4.89391345377397    7.75397439021418    8.37218897424573
H         5.14531076382593    8.91315410419511    7.06232747597696
H         6.30289517289592    7.61096520924575    7.32620447825458
C         4.71158211268922    5.49223010409672    6.74503582080217
H         5.75984777051385    5.24274153478811    6.58150407817230
H         4.11134694836732    4.83044321685051    6.12748129940564
H         4.48740934712500    5.29738606125783    7.78990934696695

