62
CSD_code = OMIJEA | q = 0 | S = 0 | Stoichiometry = C20H36BrFeNOP2 | MND = 6
Br        1.45834930251263    7.37167942654774    3.53399986961393
Fe        3.11174501429070    7.24154163408148    5.15354846648254
H         4.17323707952697    7.15570053412495    6.11676292598875
P         2.71758711615804    9.22155066927938    5.93806958489172
P         3.20766161833849    5.12231979699651    4.74305132549785
O         5.37586093325455    7.88978996582581    3.49484640968825
N         1.88987516388419    6.67137700618196    6.62662054458686
C         4.40807058329890    7.66121050236022    4.07419592120580
C         2.45747958287027    8.75677481649517    7.70883960431937
H         3.46039468590610    8.56367474879337    8.10416193419853
H         1.96991003165993    9.51754831823805    8.32257285121739
C         1.71154838947998    7.46379206056904    7.69876949276934
C         0.90508286086336    7.09290481742075    8.76228894946940
H         0.78769547606053    7.76426941289208    9.59896305092910
C         0.26308574049824    5.86667258868489    8.74053495515257
H        -0.37850281805880    5.56133184126902    9.55210328382013
C         0.48213523784420    5.03730433299108    7.65478123667858
H         0.02012732179932    4.06380445083435    7.59822280630080
C         1.30354765584107    5.46164870507882    6.62188504683475
C         1.58292449852502    4.57654877380863    5.45098037399492
H         0.82962991075930    4.75231903075025    4.67257003206264
H         1.55653860616129    3.51983064023559    5.73128063325015
C         1.16203567528406   10.19738709568725    5.56035098577717
H         1.14011867488060   10.28072646978412    4.46563117133747
C         1.11642011610356   11.59274698618160    6.17868161722357
H         0.13400077130121   12.02619984138022    5.99633053962174
H         1.85671304476429   12.26015443903417    5.74642732985916
H         1.26664809591730   11.55313881564154    7.25685530082619
C        -0.07381859733580    9.40583113499933    5.98923982597738
H        -0.16832911214979    9.37357878196411    7.07366261182613
H        -0.04911960694813    8.38891238473560    5.60649082041620
H        -0.96633396908547    9.88033533578291    5.58534245255277
C         4.03632190569734   10.52843201243269    6.03643788982582
H         3.68641001216934   11.32390449596939    6.70612903359856
C         4.25523990186332   11.08475292095865    4.62987336507457
H         4.95936325582562   11.91551978249895    4.65325563886563
H         3.32454693441245   11.43427553656912    4.18584422587833
H         4.66422955298121   10.31077205400082    3.98459837239027
C         5.33628046536758    9.95056401387035    6.58497343285280
H         5.57998917020649    9.02201719411531    6.07214917096224
H         5.26812269172172    9.74639472468542    7.65182118157868
H         6.15138033356821   10.65526602727162    6.42915673262408
C         4.42155030020756    4.08370526466912    5.69876808312675
H         4.22430735535458    3.02359479913272    5.49840703630151
C         4.26429649717392    4.35269666772583    7.19130404369604
H         5.05554586158594    3.85318479133300    7.74840538455198
H         3.30652260567161    3.99905686760781    7.56967303591550
H         4.33885325569233    5.42363735728232    7.37737632641027
C         5.82772487951621    4.46009524813772    5.24439435500008
H         5.95646392760245    5.53853392249638    5.33393121761884
H         6.00123144958349    4.17625778769701    4.20856745305308
H         6.57783166352373    3.96859097995082    5.86245073256418
C         3.10412337543951    4.36326964214676    3.03924638444264
H         2.07878580551482    4.59413483908035    2.71692642014085
C         4.05227089719032    5.06005083770497    2.06752577934300
H         5.09293082984731    4.94861729999717    2.36498980019530
H         3.82119187450485    6.12171624632645    2.01285145570576
H         3.93388766675781    4.64011782371806    1.06986166655299
C         3.29060034777571    2.84962354569670    3.01987041442961
H         3.02806476929759    2.46983125396533    2.03363048926966
H         2.64770059668344    2.35921604064910    3.74906744074713
H         4.32471273305312    2.57506466365825    3.21775148291544

