62
CSD_code = OMIJIE | q = 0 | S = 0 | Stoichiometry = C20H35Br2FeNOP2 | MND = 6
Br       10.96933653805283    3.97393692436379    6.03954655706646
Br       11.24761232187917    3.52218860417339    1.35882819470651
Fe       10.97836067267073    3.76641370850431    3.68947913936805
P        10.36610276378281    1.64849838209611    4.00966268399711
P        11.04270864372972    5.96414846889223    3.33251129635946
O        13.83579029536518    3.34481869378737    3.89508119571433
N         8.95500340751416    4.06056342246904    3.53866959308692
C        12.70688828577807    3.51176869656901    3.81475959372883
C         8.67401507822001    1.95801742576712    4.70785511609884
H         8.01284916994993    1.09292537660892    4.61272099164775
H         8.80268223389954    2.17930371075318    5.77375182600574
C         8.09662456672332    3.15804989057020    4.03437520853548
C         6.72216100716297    3.32588410197248    3.94217063332042
H         6.06718436958692    2.57698088052960    4.35890895399009
C         6.21366283193245    4.45193746278049    3.32102661650514
H         5.14894864664717    4.60359910860270    3.23585570058764
C         7.10497815526986    5.37855716431583    2.81190140872635
H         6.75683995584428    6.27070351335741    2.31553389091644
C         8.46899171260507    5.15557742162193    2.93726323977418
C         9.45357717666020    6.13356194882337    2.38791328090187
H         9.05570029962938    7.15137238744506    2.41008403093262
H         9.66942943078035    5.86961396941236    1.34612129796972
C        11.09447257224112    0.60900917429352    5.38907646168793
H        10.81962208258794    1.15460368882248    6.30150536433071
C        12.61956998466682    0.58198878719674    5.31540987180598
H        13.01500867638665   -0.08365282572968    6.08079162714428
H        13.02563447409608    1.57263817261143    5.49947291290840
H        12.97510476330763    0.23743056051959    4.34652345695637
C        10.52436788167105   -0.80193649831698    5.50326058345523
H        10.87025837463921   -1.44197501784657    4.69475440416182
H         9.43568193714881   -0.79699902820121    5.51623056906956
H        10.86314723642078   -1.24056035768637    6.44078273804088
C         9.92991070896702    0.40387380610450    2.68418669968492
H         9.47817145061510   -0.43397134473549    3.23220662899905
C         8.89202353946679    0.92222774569884    1.69172137986886
H         9.30309789829892    1.70841455598117    1.06634776893988
H         8.00136398243681    1.30105071648836    2.19083298505198
H         8.58762675099924    0.10575313798334    1.03840025062082
C        11.17510826041143   -0.08723114134056    1.95280481112825
H        10.89680469520894   -0.83117943825447    1.20808633155621
H        11.88476545920579   -0.54467778160307    2.63899228629641
H        11.66711489379442    0.73421249011977    1.43831905123241
C        10.78627182312699    7.30800469998049    4.60715110038734
H        10.66838618598901    8.22643574001643    4.01628015644932
C        12.00043464273836    7.44959505263580    5.51949901388690
H        11.82999750129903    8.24863465242291    6.23922098634211
H        12.89774116428006    7.69037430565582    4.95331952463459
H        12.17336901817569    6.53074384709256    6.07394521024563
C         9.51417982126286    7.11949881854483    5.43015196807195
H         9.60242992123293    6.27179300169330    6.10224238456750
H         8.63634474866107    6.97808039252626    4.80135259307218
H         9.35034133122833    8.00792802159907    6.03839992789771
C        12.23163986640757    6.72632587987437    2.10024792175073
H        11.95172772836523    6.26424942898106    1.14423890370740
C        12.10976599926549    8.23877751022307    1.93695981814632
H        12.49700231511383    8.76948794618697    2.80375521292355
H        11.07942707633322    8.54336682978061    1.76058394318461
H        12.69663233911404    8.54491035035134    1.07207533348912
C        13.67254508288821    6.31862460834359    2.40108592058526
H        14.35265718196130    6.83977240812021    1.72945425093069
H        13.80574132463606    5.25223873848650    2.24144743491344
H        13.95716174166680    6.55271710196493    3.42496176193384

