71
CSD_code = OMIKUR | q = 0 | S = 0 | Stoichiometry = C28H37IrN4O | MND = 6
C         5.09459535284870    6.23023165982048    1.91338262274440
H         5.04360209965248    5.14879236170490    2.02484374053703
C         4.06807515886157    6.86322575906140    1.18186120318157
H         3.27522308917992    6.23427701289720    0.78875329799766
C         4.31062977242064    8.11218768824086    0.35598256837673
H         5.33832223580675    8.10774038132798   -0.00805234713692
H         3.65845976561598    8.09566260021767   -0.51822012757821
C         4.02974622902741    9.38672848247335    1.16928430972879
H         3.00139168544482    9.70486820193162    0.98962615918494
H         4.68256563279272   10.20304134016573    0.84189751552118
C         4.19726192099017    9.16779750773355    2.65939362812888
H         3.62859414964567    9.89466733765626    3.23904376495992
C         5.35790577917594    8.62126719034823    3.23711638375719
H         5.61517306150759    8.93534249662083    4.24317380304077
C         6.56871471033961    8.23239753678463    2.40794409093242
H         6.62811554877064    8.87848055486917    1.53163955263469
H         7.47364614543505    8.40179960099093    2.99366797953601
C         6.51251195685756    6.75380226886790    1.98733726948002
H         7.00435117748076    6.61026939406992    1.01985068317518
H         7.05546068349129    6.15267572426312    2.71818256162172
C         1.98054940926526    5.54011880952258    4.67524506074196
C         0.70778736319385    5.14898564743624    6.40122222486367
C         1.33859982605267    6.36649546826497    6.66441745662721
C         1.50084607676762    7.26513707842077    7.71813427474732
C         2.35745787943201    8.32623550226687    7.49344533671844
H         2.52006927521609    9.04741304184568    8.27847939726673
C         3.05776644029913    8.49891149083733    6.27736874204737
C         3.95659780662911    9.69002627816003    6.17723643283422
H         3.90849671939729   10.14414219967726    5.19416048252905
H         4.98628411187578    9.39127107792607    6.37043547972120
H         3.67456516145865   10.43039856353150    6.92142265980411
C         2.37279535648496    4.35500541655510    2.65806686359885
H         3.06119296077653    4.44143646920904    1.81600263839269
C         2.70047085498737    2.99930450383703    3.33777545717363
H         3.08153437950744    2.30595098770401    2.58150377249136
H         3.50920562971704    3.18011102633026    4.06658501125594
C         0.93622890417412    4.42272440862992    2.11724812478590
H         0.24810210543120    4.33167123552667    2.95864786120002
H         0.79477537473068    5.41399090004305    1.67604394562588
C         0.59360016095664    3.34889146638213    1.08154303020639
H         0.79533173098133    2.36950273387642    1.52256227549535
C         1.41646513675877    3.50074872988874   -0.19630618746713
H         1.09758642185697    2.77032859584072   -0.93701081857197
H         2.47566190391630    3.34522829068637   -0.00753897141080
H         1.28196879417692    4.49529555665218   -0.61902152818196
C        -0.89580422677729    3.42772773579197    0.74858926654296
H        -1.49501703777555    3.28769855229598    1.64498844061387
H        -1.16924342080143    2.65743154524348    0.03062727365063
H        -1.13932731805043    4.39829292668323    0.31937890352021
C         0.82272763976850    7.10062436437827    9.03686292831710
H         0.62833998082534    6.05237949270999    9.24671693357161
H        -0.12962313440923    7.63069778144720    9.03823302093067
H         1.43952240126940    7.52283042578355    9.82757563045119
C        -1.33512577780279    5.04762506666708    7.81232615847700
H        -1.45302079231445    6.11541801457554    7.70241233459299
C        -0.16892368443265    3.01763172629100    7.27236907577699
H         0.64164340636023    2.51561232833396    6.76706822412132
C        -1.09460350641234    2.29626630226102    8.00110776973629
H        -1.00434617752207    1.22195518254155    8.06717047127661
C        -2.13655560796168    2.94476271822163    8.64426897818282
H        -2.85811308190349    2.37950497430212    9.21572513422094
C        -2.25840469526040    4.32059329506671    8.53960108970885
H        -3.08198789564952    4.82856197526070    9.02090813534854
C        -0.26845675768845    4.40571361229939    7.18561125320228
N         2.97123166113359    7.64191007936268    5.28466767204937
N         2.13313706990771    6.59341037536287    5.51499816290472
N         1.11980477288195    4.66464321266288    5.21174584259083
N         2.64173182469185    5.50089812230291    3.52314180261274
O         1.62449883276845    2.34757882874396    3.94270909719211
H         1.19987541173233    3.00908428526293    4.52833508700313
Ir        3.77715417399952    7.18426649707594    3.26368363118276

