40
CSD_code = OMINAZ | q = 0 | S = 0 | Stoichiometry = C14H16N3O5PW | MND = 6
W         6.64762636041960   -4.17076243581863    2.59283087527981
P         6.75412617561965   -2.15719924188413    4.02602823057806
O         8.00174391817687   -6.07634856328230    4.69115180698992
O         9.36576389287596   -3.29961552523097    1.29087345155454
O         5.26103138583766   -2.48020153526219    0.34297249642548
O         3.73754058658179   -4.81083977233812    3.57420707927563
O         6.49691629980012   -6.61784878084769    0.65373262168974
N         4.67534296957562   -0.86958967013156    3.08023391371607
N         5.96509385774950   -2.05258349199501    5.52165244550793
N         8.30281377431539   -1.50235844308136    4.27283411840191
C         7.51091864809157   -5.35152837998995    3.95474366279793
C         8.40667367906994   -3.64529120581009    1.80541807102587
C         5.76905926140358   -3.06171162258260    1.18465988448117
C         4.81703065213179   -4.59657777603502    3.27343173479060
C         6.55219319212171   -5.72778942712871    1.36895781455489
C         6.00267411814831   -0.84369084333409    3.01935759957157
C         6.70517921261435   -0.06957635635514    2.10169205503485
C         5.98191960083797    0.73534902105566    1.23896242656777
C         4.59671514432880    0.72698301092754    1.31641787845750
C         3.99324161273975   -0.09926980159792    2.25311840131754
C         5.18322082894372   -0.90060775205354    5.92943924363445
C         5.49066358836271   -3.27854343248252    6.13545127183847
C         8.40427313344175   -0.21696189912690    4.94251138883987
C         9.33973303033147   -2.41198005161362    4.72668745269459
H         7.78326966685318   -0.12322777707657    2.06711787363427
H         6.48748716289248    1.35008440661320    0.50794811809677
H         3.99881108617409    1.33443846877454    0.65538479399844
H         2.91575479821496   -0.15406816082107    2.34215184626886
H         5.56689541016368    0.00240594529589    5.46047389744080
H         4.12781302761642   -1.00835856815849    5.66161078416294
H         5.26046169370952   -0.78923846967120    7.01461239526730
H         4.42480774964189   -3.44593149082895    5.94862411707325
H         5.64365226743887   -3.22323581239895    7.21710407770714
H         6.05818017943009   -4.12557876062459    5.74886280309427
H         7.65754468688720    0.46912551583935    4.54499425141978
H         8.26504287954526   -0.30106234428648    6.02652181023272
H         9.39590556904019    0.20112702410366    4.75519903337680
H         9.19395399489464   -3.38930953525108    4.26659564223355
H        10.31497968338504   -2.02327624280007    4.42382437353835
H         9.33874520945715   -2.53225022328036    5.81610825934105

