97
CSD_code = OMOBIC | q = 0 | S = 0 | Stoichiometry = C45H42BN6PRuSi | MND = 7
Ru        7.26375645411157   11.14499597983674   16.33525194109961
H         8.63683743862974   11.44414974531272   16.91236405068560
H         6.63657254645120    9.77588468852092   16.06056141064399
Si        8.54455463183044    9.07545381058943   16.94458355010772
P         8.06193907290008   11.31333943694617   14.15861816792086
B         5.02039697495704   13.21990955266138   17.41923257572710
H         4.20901273114489   13.97484980030885   17.83151794495108
N         6.47178555143914   11.34798556956748   18.28327143973141
N         5.51454635134492   12.25853244605755   18.50791661559514
N         5.25926462161470   11.47779038618306   15.66642917372584
N         4.48527699155024   12.38432333302836   16.26130084676506
N         7.33789238232631   13.25679536088014   16.50650965285254
N         6.26868572494472   13.94736412737782   16.90294389678035
C         6.79907093500990   10.81789282540249   19.45439050728877
H         7.55913667261577   10.06793195923862   19.54308939411494
C         6.02287600797189   11.38465090019982   20.46515682473034
H         6.05028635747670   11.15742073391259   21.51046812386934
C         5.22224903517202   12.29794062257464   19.81787043791449
H         4.47562037262560   12.96620223060182   20.19638362669064
C         4.53528678064035   10.89785541937846   14.71604500013602
H         4.93643094838492   10.11889924996307   14.09579254945749
C         3.25722293209954   11.45402623188023   14.69052403735169
H         2.44938082494966   11.19863772082863   14.03642460500108
C         3.27005982736858   12.39745427186616   15.69498122780387
H         2.50673171199856   13.06506732074257   16.03929733399152
C         8.30482349966566   14.12761130347431   16.25144305845286
H         9.28027486932088   13.81042801063689   15.93471810221953
C         7.84432458450223   15.42341746072594   16.47395146354624
H         8.38625870356818   16.33796289035215   16.35061000769556
C         6.54140862123065   15.25985589139058   16.89123810236752
H         5.80332885876789   15.98029600722568   17.18001903152306
C         7.90584020675141   13.02623801677828   13.51165460417604
C         6.62485563687327   13.57036738974844   13.43113458326240
H         5.76873929152039   12.95169432166109   13.66584423422666
C         6.43853580435005   14.88234569821677   13.04251851469597
H         5.43995112370961   15.29204032177422   12.99017685379209
C         7.53237428264814   15.67153309375002   12.72361889401231
H         7.38932718604920   16.69963339821120   12.42556462114629
C         8.80675501136387   15.13577079101145   12.78519160093824
H         9.66171801657215   15.74498629651093   12.52979007400647
C         8.99602271371427   13.82204315516879   13.17940428767135
H         9.99645155865417   13.41633284243653   13.23198450652865
C         7.27172287021572   10.40486873431307   12.77278113529197
C         7.00128341383354   10.97354436736629   11.53132869051288
H         7.23958348398563   12.01079031621384   11.34242519937483
C         6.42937559613286   10.21073593646550   10.52775869179385
H         6.22036724546186   10.66214211782930    9.56848087003564
C         6.13085652400358    8.87582556206046   10.74521459299640
H         5.68752498571027    8.28585520298700    9.95656547069814
C         6.40227314626221    8.30261190563565   11.97682159697525
H         6.17678438066631    7.26189716950991   12.15684855995722
C         6.96331997783643    9.06460808079513   12.98489703313905
H         7.16643907756355    8.62827068640973   13.95211125945593
C         9.82536065006732   10.99135516609097   13.77325149205670
C        10.25186965683076   10.54061004896441   12.52803898109617
H         9.53428855877979   10.34515057451078   11.74503791198635
C        11.59841163998869   10.32842795297814   12.28956150110230
H        11.91893276740699    9.97240640557848   11.32107693419365
C        12.53292961857280   10.56538656300763   13.28385072236060
H        13.58179451253908   10.39116233795541   13.09401188505650
C        12.11652693133762   11.02052641718930   14.52452884638084
H        12.83679905023585   11.19906798198713   15.30946831797381
C        10.77154765351188   11.23142946204964   14.76608535056684
H        10.44141790572716   11.55922444581757   15.74162214345670
C         8.81819855077339    7.77081039486384   15.55413345675361
C         9.88431927947560    7.85215799423134   14.66338020087214
H        10.61836978416401    8.63178625206326   14.79033630775786
C        10.03087065349116    6.94688849955111   13.62768025664694
H        10.86578426644610    7.04077015291817   12.94720741605031
C         9.11426293384195    5.92255289262664   13.46530656649655
H         9.22591287605401    5.21329588270464   12.65739711778531
C         8.05885794252863    5.80853469418682   14.35422631055385
H         7.34571196900057    5.00281932417490   14.24613018287822
C         7.91478973907950    6.72455193724410   15.38120224108967
H         7.08447476462549    6.62755597079069   16.06562556050116
C        10.30326368242246    9.24886690075081   17.72005214715617
C        11.26623700109752    8.25756765535913   17.54597812665971
H        11.02824019929954    7.38815656445057   16.95166245984971
C        12.52001283255107    8.35930796325580   18.12252357178874
H        13.24921093421063    7.57655815540163   17.96594964996141
C        12.84065990217598    9.45707968675348   18.90233065616626
H        13.81948533162434    9.53985096677495   19.35325059646574
C        11.89199450184003   10.44447481848375   19.10490245297271
H        12.12678637183398   11.30135233576074   19.72137744403734
C        10.64314309969202   10.33497220628679   18.52015285764414
H         9.91406131601073   11.11670952676967   18.68664110383999
C         7.62910485874429    8.00536245486768   18.26266493665371
C         8.33953712084955    7.26742974007047   19.20388317536460
H         9.41817405459904    7.31912008486176   19.21001465393011
C         7.69356714991725    6.47317517129433   20.13539226743613
H         8.27076352292268    5.91138166867852   20.85640792385608
C         6.31187824819791    6.39713186464312   20.14584774078882
H         5.80433539318091    5.77883623914335   20.87257855650409
C         5.58518133534316    7.12283639385970   19.21717075774351
H         4.50493693193502    7.07168309229623   19.21690694773985
C         6.24030790954501    7.91423777197185   18.29196936603265
H         5.65889204663108    8.48417669431126   17.57856232829881

