66
CSD_code = OMOFAZ | q = 0 | S = 0 | Stoichiometry = C32H24BrF2N3OPtS2 | MND = 4
Pt        5.75541280912440    6.85818074562761    3.24839780485260
Br       11.64118176306034    5.50045334544056   -0.98271457963226
S         0.92700244218629    7.81875354059538    1.96035853588008
S         3.05907877592506    6.25792281190078   -4.37214692899360
F         2.84141639136178   11.26940897953366    2.03587090976210
F         2.75665671953951    9.71452701803019    6.44732022529001
O         7.25360496879844    5.33804909943986    3.12256091435323
N         5.60367330837916    6.60444626388431    1.27663885887734
N         6.14082327768011    6.14463774241841   -0.78964749085957
H         6.67479309829977    5.83788788228431   -1.58464728622193
N         5.74576931510875    6.90290649030054    5.20151563609424
C         8.15587441010568    5.39449393311320    2.21350379651436
C         9.45576876721952    4.90037861586399    2.49436489921212
H         9.63282425143111    4.50520896729743    3.48360787329724
C        10.46957549197827    4.92814351681085    1.57355335707020
H        11.45137227290058    4.55766565653033    1.82773107290695
C        10.22848157823227    5.44487554339815    0.30448252384543
C         8.98125763506743    5.90725196089010   -0.04188885407429
H         8.81630049568157    6.31211787954430   -1.03054801276901
C         7.93881179657235    5.88513186201101    0.88507951070554
C         6.60677888369368    6.25213654694265    0.47913164334976
C         4.45953482078099    6.66212186168531    0.51952823802592
C         4.78530655601758    6.38164822940003   -0.79049814283635
C         2.17398061633516    8.67674738395021   -0.38549987880024
H         1.91913012128479    9.68995115524931   -0.07906228065172
H         3.14247715666957    8.68715137759249   -0.87916576845713
H         1.42504259924041    8.34393720732445   -1.10471343270103
C         2.21250186130159    7.77618435026381    0.79575443421127
C         3.18454307252610    6.89660638119754    1.17806231707344
C         2.88992661587077    6.24858025876661    2.41840172069782
H         3.52201223442486    5.47854122958138    2.84512287709906
C         1.71468050472596    6.64054162746310    2.96699837098273
C         1.10102536546536    6.20874081241642    4.24936011320116
H         1.00884691670216    7.05570457479087    4.92896002206494
H         0.10372551573427    5.80036537160669    4.08800842342007
H         1.72384917176505    5.45160357066340    4.71948600126963
C         5.66350417755815    7.03432786946939   -3.74897942232162
H         5.52256955459270    7.58499814385573   -4.67651191004625
H         6.12603047444228    7.69840069060007   -3.01980783413898
H         6.34747841269196    6.20914038901206   -3.96040575621704
C         4.35134534566384    6.53455418608317   -3.25013287500762
C         3.95479973602972    6.26232856547232   -1.96644755757488
C         2.59788163122025    5.82705645891709   -1.89609456097371
H         2.12516616669793    5.55744150695961   -0.96960245027602
C         1.98122402504064    5.76818032003728   -3.09918594941504
C         0.58612638565827    5.35976278253513   -3.40811546217765
H         0.04151491584138    6.17742331232415   -3.87993382230902
H         0.57437349069184    4.51325487593587   -4.09398818599824
H         0.07279218422803    5.07807636419363   -2.49198757987158
C         4.56890298131558    8.44243958614581    3.51571319335594
C         4.14511984335219    9.38646241513254    2.58624715055432
H         4.48823158066948    9.35778265464712    1.56318050063426
C         3.25902598573127   10.37819445765669    2.96022445637616
C         2.76194814467453   10.48290538407499    4.24727602348429
H         2.05082248300313   11.24597268716459    4.51581551217706
C         3.22881164883072    9.58452712199129    5.18489906831587
C         4.14081919853655    8.58212851148465    4.86100738252284
C         4.79845470854263    7.67383855959196    5.79271386934235
C         4.58173025265849    7.58775941126832    7.16661558308648
H         3.82397074305571    8.19070096759936    7.63623201214903
C         5.34510646196221    6.72064728153574    7.92752138460239
H         5.18562079232402    6.64889588617912    8.99247602831307
C         6.31533803412495    5.94915061245772    7.30379527963520
H         6.93272258179478    5.26599466717885    7.86429291758909
C         6.47721811751635    6.06978659889158    5.93589597402762
H         7.21220836038265    5.48336393778534    5.39771960609078

