23
CSD_code = OMOFEB | q = 0 | S = 0 | Stoichiometry = C7H11Cl2NPtS | MND = 4
Pt        2.30346049667511    5.47845260848920    2.97367997729407
Cl        0.00871877905139    5.23206806126044    3.27699090798488
Cl        4.55554274930977    5.64849912019449    2.59791677549408
S         2.51083264752776    6.85956846749408    4.83475725906836
N         2.16938647192003    4.31794341462901    1.39095394414809
C         2.74486445330539    3.11507880350870    1.39205669513284
H         3.27428139899441    2.83185991791367    2.29439168477974
C         2.68323646111552    2.27052058825277    0.29909236975022
H         3.16017109316748    1.30442498225988    0.34063421095268
C         2.00808529331370    2.68741157730480   -0.83813456690920
H         1.94531735418988    2.05148167120742   -1.70761290023192
C         1.41661499320935    3.94160307692455   -0.83218552915018
H         0.88190300892571    4.30935291424158   -1.69329959093625
C         1.51825621990828    4.72636991457739    0.30156529034741
H         1.06092193878547    5.70828736043473    0.34753633035449
C         1.68435366897809    5.89348238867424    6.13334697769016
H         1.57133975965353    6.52353694902594    7.01154817187933
H         2.32614525898695    5.04809055857015    6.36455316440894
H         0.71954747223943    5.54850108686410    5.77057338157220
C         1.21872641769268    8.10453922299789    4.54621026144021
H         1.10611858986842    8.69935561942333    5.44867644668457
H         0.28871842754975    7.60654364374640    4.28370481249257
H         1.55555704563279    8.73432805200774    3.72764392575485

