52
CSD_code = OMOHUT | q = 0 | S = 0 | Stoichiometry = C21H18N4O6S2Zn | MND = 4
Zn        2.31630092813321    7.22682987117870    4.81581624200837
S        -1.03908931382616    7.52494626606221    4.36207963880939
O         2.02057774821347    6.23300889574091    2.85372945075805
O        -1.85472393310579    6.66769707536331    5.18288375867231
O        -1.04495790804855    8.91289372736016    4.72607476712101
N         0.48637702304758    6.91896306065104    4.29879460724761
C         0.86407967904358    6.61261234803917    3.06497807328864
C        -0.20753275667387    6.76853228599444    2.05987944030195
C        -0.13779795140230    6.49524609028695    0.70304747968513
H         0.77543915406495    6.10747661557374    0.28003235654080
C        -1.26170045573534    6.74012769418144   -0.07265150827382
H        -1.23327455125967    6.53625918249632   -1.13272249853446
C        -2.42241598204607    7.24717473620180    0.49419799841783
H        -3.28517658259707    7.43125028097394   -0.12846467492162
C        -2.48748655537893    7.52796534217750    1.85527427664232
H        -3.38165494645560    7.92800682569581    2.30637715972465
C        -1.36907803315221    7.28275440521986    2.61649240715663
S         3.74561894325674    8.92353267794394    3.37374438997160
O         5.19423015806062    7.50883984348315    6.42030311346132
O         2.31900941860605    9.11513858795874    3.58705220865248
O         4.17490929855317    8.73554227846092    2.02697873738543
N         4.15361123687463    7.74112796126954    4.42010949653849
C         4.91360657779006    8.17872128375927    5.43604639254565
C         5.33550023661362    9.60262521467164    5.24963614941042
C         6.19812796480077   10.32736684974869    6.05636561682077
H         6.67125993984302    9.84948886588455    6.90000677765427
C         6.43338514636633   11.65782327584297    5.74149176021077
H         7.10816144617432   12.24018972047973    6.35104672950420
C         5.81441299787939   12.25112447347055    4.65042913624592
H         6.01097838345864   13.28779686947038    4.42200671418258
C         4.94529375502826   11.52476236793954    3.84318502353171
H         4.46142568322816   11.97256980425224    2.98977622600752
C         4.71797226611972   10.20647440322606    4.16568445920960
N         1.62117358415084    8.30498804620886    6.48934128174935
N         2.92903032487400    5.65566351323142    6.07610846121943
H         2.77183434647332    4.74511514111549    5.65357513346717
H         3.93826247124521    5.80411565909947    6.14378056537274
C         1.52463138291498    9.62928612554315    6.40572152092157
H         2.27743859083454   10.12235660448225    5.80748010097129
C         0.52582783620136   10.35768108364673    7.02134095399154
H         0.48428402772590   11.42823535614130    6.90371613467036
C        -0.43078414313117    9.67588188634376    7.75492085939302
H        -1.25153256366872   10.20102783891646    8.21938966146457
C        -0.30528527374289    8.30608597657548    7.88590231925660
H        -1.02065075270239    7.73865182424861    8.46016168273138
C         0.73534041277591    7.64672942356489    7.24254012273000
C         0.88944788164958    6.16114588197461    7.39431118600702
H         0.37465445526537    5.68482785228153    6.55581939747918
H         0.38982880001847    5.84944859177827    8.31292586208200
C         2.35117613433134    5.71152690336158    7.42395553997792
H         2.93521267134710    6.43037089801138    8.00272120661774
H         2.41992079795476    4.73379221241840    7.91650610391639

