56
CSD_code = OMUCAC | q = 1 | S = 0 | Stoichiometry = C24H25N6Pt(1+) | MND = 4
Pt        6.05334754851261    1.54138759432518    1.09858468188331
N         5.81647211254834   -0.07198621075931   -0.03300545927214
C         5.23066841229390   -0.11673264610047   -1.23017849832004
H         4.89229986951481    0.82355403213592   -1.63986632661892
C         5.05284793629781   -1.28920254691981   -1.94227127682882
H         4.57356775623894   -1.26466275719692   -2.90701500149443
C         5.49784145093808   -2.48086280241738   -1.39115830571636
H         5.37548676674163   -3.41610528352635   -1.91375340456711
C         6.09664260982910   -2.44521352072382   -0.14477457250617
H         6.42879899658560   -3.36032425776656    0.31626624348767
C         6.24870353534186   -1.22942466314420    0.51789834685743
C         6.83760848359430   -1.13933055574584    1.86240076394299
C         7.54268597072511   -2.17844661202669    2.46725647487366
H         7.72922198948800   -3.09901982102758    1.94003646913270
C         8.02669750363156   -2.00973739768911    3.75287840853292
H         8.57696271417465   -2.80203788614730    4.23570015974825
C         7.79269159794053   -0.80892205615284    4.40612921317594
H         8.14282771083981   -0.64167891123091    5.41139036416166
C         7.10151475439430    0.18384035759893    3.73283456181949
H         6.90234501810476    1.13688911310819    4.20512207958702
N         6.64176650057618    0.02733239669404    2.49902203580903
N         6.29661445390739    3.04558857537076    2.34074774085128
C         7.47781398326960    3.67483646862578    2.46631988503064
H         8.27146166564616    3.33623678848615    1.80743840317552
C         7.69043695030847    4.70131373972909    3.34226258224483
H         8.65211003945818    5.18391973128984    3.40453792622887
C         6.62982254222641    5.15359957523414    4.17216299941902
C         5.39614514866276    4.46576149355117    4.03300115800483
H         4.55215622365292    4.76715228161214    4.63133523914616
C         5.28071182453350    3.45460566938578    3.12225220648935
H         4.33586276989522    2.93731422336365    2.98422658572268
N         6.83992912768255    5.98867865100477    5.17275297890395
N         6.99083963756247    7.22552650534110    5.25119154317723
C         7.34770055018571    7.80596753304870    6.42073145891182
C         7.41849388634742    9.21216938689517    6.42539904351526
H         7.17349449174022    9.73856869045888    5.51630711350301
C         7.78496034293733    9.89530664411022    7.55011793176607
H         7.82321570198864   10.97034015174319    7.51116168551950
C         8.10931693707611    9.21568402949871    8.74895082358398
C         8.03462447600857    7.80032962593429    8.73578696414094
H         8.27251714929582    7.23951091495679    9.62402649605016
C         7.66577654380303    7.11970250232509    7.61170221645400
H         7.61399340756594    6.04055743126913    7.61646726135238
N         8.47637163627904    9.88736643573573    9.85957996699363
C         8.56006418206321   11.32974233883606    9.85635144281857
H         9.27864784103282   11.67834034294584    9.11065376457243
H         8.88915149940379   11.67842430284363   10.83113872312242
H         7.58640536565957   11.77890470368686    9.64507774059218
C         8.79598780271536    9.18332337710325   11.07982330276080
H         7.94313538614928    8.59560788687139   11.42831688402858
H         9.05276282984581    9.89786759747030   11.85670686103021
H         9.64984657809346    8.51619625085314   10.93628898851887
C         5.64017042459095    2.92085653830470   -0.34552434866956
H         5.87206520201268    3.94659574769238   -0.05033463755189
H         4.57220610754993    2.89036229524532   -0.58781596603053
H         6.20558805246030    2.70892600376007   -1.25803992307347

