73
CSD_code = OMUDEH | q = 0 | S = 0 | Stoichiometry = C30H38N4Zn | MND = 4
Zn        3.52696484571503    3.76962899292963    3.40138924417742
N         4.55390464885128    5.37286928695303    3.80715502508051
N         1.93396779935713    4.63025478205266    2.68256753843815
N         3.20370140205235    2.58545127943212    4.91560834876241
N         4.40991464298738    2.49441987805280    2.22634764852412
C         5.76587683333982    5.52497839685209    4.32589202218030
C         6.10081022432774    6.89691390624214    4.45294512308976
C         5.01683523659079    7.60671591389464    3.97713588277852
C         4.04678214026488    6.63664917636279    3.57185932836228
C         2.79949708645002    6.89986736928777    3.02830103631095
H         2.55424228228571    7.94724492833127    2.90687965552640
C         1.82275736841439    6.00629103483731    2.61803176402999
C         0.54794573512465    6.34099056466174    2.06285603051359
C        -0.09033185071089    5.14443953074656    1.80511453406912
C         0.80624465081926    4.12070266326517    2.20225413203474
C         6.61810703789080    4.36839129647723    4.70046365424420
H         6.87199370295712    4.41011348207066    5.75966607334857
H         7.54896897762376    4.38525150344544    4.13329250719656
H         6.09329530349001    3.43759010680480    4.49551776924020
C         7.39316696126587    7.39563003421576    5.00449694621360
H         7.42818998299156    8.48182668431530    5.00143884001673
H         8.22938316865174    7.02144649966991    4.41336130555614
H         7.52895910664855    7.04886962375133    6.02929668877968
C         4.83992456026560    9.08268066994906    3.88131621200270
H         5.71790421909752    9.60312148394429    4.25475076310845
H         3.97648687432555    9.40354175016546    4.46437404988694
H         4.67757160597206    9.38232342017459    2.84578341856342
C         0.05429516886775    7.72604747523042    1.82419249131415
H         0.70586544973370    8.24860585529340    1.12354942722969
H         0.03601571741824    8.29361625705021    2.75473505835961
H        -0.95023895306363    7.71182082788538    1.40964707746300
C        -1.43912705398068    4.90233758579589    1.21690061031127
H        -2.03567958205084    5.81109207946002    1.21852961220689
H        -1.96933664969469    4.13788725848664    1.78320181499763
H        -1.35073188610110    4.55332200212096    0.18707194690105
C         0.57302402476112    2.65668641899493    2.11828916054745
H         0.34606178534819    2.36700399655352    1.09259543454878
H        -0.27405120070582    2.37035408489977    2.74214521633184
H         1.45730441343804    2.11972158151469    2.45508360685124
C         2.62561980117312    2.80450641317225    6.08967658475525
C         2.61711127270703    1.63001740637153    6.88482684056461
C         3.22975400835307    0.64812564885101    6.13321596822955
C         3.59594218558679    1.26036938456473    4.89283087438727
C         4.23772249937906    0.64427715690684    3.83098387532822
H         4.47702665446536   -0.40213628335569    3.97177366139030
C         4.61775232218261    1.18360243024455    2.61156981383290
C         5.28237527330713    0.49420069269036    1.55216397670218
C         5.46508242842853    1.41549178874021    0.53930482951032
C         4.91005230637983    2.63274250679259    1.00293448872799
C         2.07367899847534    4.12988939886268    6.46743405101356
H         2.22706977894003    4.84177368199771    5.65919145256572
H         2.56176801486122    4.50140868365473    7.36849708965180
H         1.00649909630714    4.05013319553790    6.67508984515265
C         2.03907227571696    1.55289403931594    8.25704907533349
H         0.97963199689212    1.80988239325287    8.23900098063200
H         2.54057847494547    2.25689886344481    8.92164607223734
H         2.14394841413431    0.55390416060908    8.67183544148820
C         3.48550196756416   -0.77502306148745    6.49107750622650
H         3.10616938211314   -0.99876947859326    7.48468286804175
H         4.55474697654287   -0.98724893612963    6.47570404248602
H         2.99919246795343   -1.44227695647000    5.77927923216850
C         5.68906857100555   -0.93862444563292    1.56359888825891
H         4.82318162276206   -1.58346499562402    1.71452748044541
H         6.39582533061125   -1.13125919347602    2.37111448101669
H         6.16012567083145   -1.20665115898567    0.62166007493875
C         6.11248277256469    1.19284569331136   -0.78741862206474
H         7.12472986054330    0.80832571333909   -0.66203491839917
H         6.16400036737186    2.12216806415589   -1.34792473010744
H         5.54812865369805    0.46731683168903   -1.37430446580102
C         4.85736907267549    3.93093069174271    0.28122106399962
H         4.31878322420322    3.82367676100364   -0.66017107486667
H         5.86397202079581    4.28476705042589    0.05783576052660
H         4.35157045551510    4.67260617690398    0.89609049252980

