165
CSD_code = OMUGUA | q = 0 | S = 0 | Stoichiometry = C70H80O8P2PtSi4 | MND = 4
Pt       -3.83020929161502    0.11488971075328   17.23144335836028
P        -3.87042727676457   -1.79465420032094   18.63096293571368
P        -3.98937644451324    1.24575265394139   19.29830560754252
Si       -3.53867145905441    2.11187822711374   16.04509592401895
Si       -3.76421192787401    2.14260762394870   13.64893827683713
Si       -3.53074388481524   -0.10906190169748   13.15019411562729
Si       -3.95294965872599   -1.14471846454469   15.25753009163409
O        -8.15759359569715    4.62405721681302   16.57207478824460
O         1.50480140115256    3.78065463521450   16.18391925881274
O        -9.02778878873672    3.27386319001391   13.45433658997981
O         0.47162935645706    5.33060591647125   12.69078620634455
O        -7.07387457290964   -2.81094275183163   10.13664589542502
O         1.84695067473532   -0.35288375575159   13.18851025517601
O        -9.13259811596486   -2.10347247785332   14.55483472432131
O         0.27768417565265   -4.50019537173580   15.11243403867470
C        -2.08452086890664    3.30304282360337   16.34166123721928
C        -2.55699441654944    4.61831897940453   16.49659972839552
C        -1.64727824065592    5.66191547934525   16.54721919275346
C        -0.28703462264545    5.42265226019870   16.44907562961119
C         0.18263363742081    4.12336355016403   16.30002593716134
C        -0.73058901810670    3.06955831982228   16.24683776192839
C        -4.70935225525751    3.53827084693826   16.48505958001185
C        -4.00514350444114    4.74973106765170   16.56925541642804
C        -4.71422038122220    5.93502064943675   16.68831857310651
C        -6.09882708367955    5.93095246670747   16.69801067116984
C        -6.79796028149695    4.73216857581407   16.59604363380756
C        -6.08607472975297    3.53664234673986   16.50754556647351
C         2.46868323889763    4.81332846563509   16.21842280314145
C         3.84046576755372    4.18751128215134   16.02031657547608
C        -8.92377715499477    5.79087733998016   16.35449479528734
C       -10.31796426935265    5.36019335166343   15.92691480692425
C        -2.78399154520509    3.66369039057039   13.12162206081550
C        -3.63736785741603    4.77457724901171   13.01136402435176
C        -3.07763134387579    6.03443686926953   12.83530237458569
C        -1.70906152128059    6.18117472035288   12.74747295820706
C        -0.86322660295721    5.07237048109250   12.82233913712276
C        -1.41255833574027    3.81312726132580   13.02502147747184
C        -5.34939332355642    3.11339873354042   13.34471472441795
C        -5.05924893046364    4.46573999249612   13.10924120167027
C        -6.10946122534077    5.36811151619699   12.98888938739861
C        -7.41368724252613    4.93364285203873   13.10338147046049
C        -7.70300709475238    3.59016458159835   13.35147049840944
C        -6.65649375301644    2.68369882532133   13.47188641977881
C         1.36619189081597    4.23754324921215   12.63939926253925
C         2.74217282714793    4.77554735861408   12.27622537747717
C        -9.37612656373828    1.96022522905190   13.84064054436642
C       -10.89059384868324    1.88917850063862   13.95632234341976
C        -1.78616416355973   -0.56440702617093   12.60866803118455
C        -1.80607342323374   -1.48453865750373   11.55165074316931
C        -0.60027922884896   -1.97352734870863   11.06076126140253
C         0.59188926631427   -1.56505842522560   11.62258142352329
C         0.61034804425645   -0.66194447963266   12.68914422362276
C        -0.59108953228641   -0.16025740034780   13.17369629180813
C        -4.19285643874393   -1.19073320041980   11.75779062214145
C        -3.14310061158059   -1.84738674041486   11.09408411898246
C        -3.45244036731169   -2.78275169054702   10.11327783166493
C        -4.76868079054928   -3.07034194455680    9.81719891253836
C        -5.81185380966230   -2.43169867203145   10.49218500530164
C        -5.51163401344855   -1.48197910741126   11.46039754371539
C         1.92109156932744    0.43670942951759   14.35649532031754
C         3.37745482845662    0.50309343223096   14.78643240645640
C        -8.16532397871046   -2.24909590752302   10.83441017527301
C        -9.43567303190754   -2.90346017108634   10.31276240340669
C        -2.97764211472013   -2.77526599202420   15.19238000538867
C        -3.82737773732224   -3.87045721678523   14.99367784079787
C        -3.27711362347174   -5.14413681202835   14.88732090982232
C        -1.91022587902894   -5.31627680755857   14.94487877135033
C        -1.05820894715929   -4.22011375948094   15.09809866916556
C        -1.60645261975264   -2.95027385300415   15.23659609347681
C        -5.54119110961790   -2.17085037693729   15.03911809549317
C        -5.24230989702874   -3.53654787636607   14.89647877323208
C        -6.27147748224554   -4.43270609027968   14.65463303345056
C        -7.58054106557906   -3.99355454839111   14.54151374133839
C        -7.87739497869677   -2.64127105634668   14.67201287037431
C        -6.84407496741414   -1.73845548303627   14.92970087124218
C         1.18812202164516   -3.42344958126683   15.01163712179292
C         2.57181733340799   -3.99907573813008   14.75601225123861
C       -10.21318250041876   -2.97017049402161   14.28328705451013
C       -11.46944251248974   -2.12588972165428   14.13809823866816
C        -4.57900689699688   -3.48156986716017   18.57013704069528
C        -2.07487331847259   -2.15639505119962   18.69882680763844
C        -5.76763763890835    1.61036248774029   19.52563437525932
C        -3.22019419089114    2.78950849309821   19.90813328360877
C        -4.22751298160909   -1.30662558400391   20.38630939151058
C        -3.65138406338200    0.07028118762778   20.69342642618108
H        -1.98655850817328    6.68198991819319   16.65200021164937
H         0.39205521405232    6.26015690685795   16.48082417798276
H        -0.35188365894937    2.06481664423741   16.12710458731759
H        -4.19766804117673    6.88155313905093   16.75607377458045
H        -6.62410424925648    6.87027430724940   16.78029436710827
H        -6.63401608578657    2.60937533970607   16.42373138266547
H         2.42736237560512    5.33386016679329   17.18624638380473
H         2.26836910428469    5.54242953442983   15.42158657509178
H         3.87838713599392    3.66877485764503   15.06663300110403
H         4.04320606164499    3.47384755652625   16.81468278456563
H         4.60313258396753    4.96109882363163   16.03614093687289
H        -8.46431361136588    6.39831646279096   15.56444484167833
H        -8.96960689876795    6.38905463562938   17.27757705235638
H       -10.76720428515949    4.73660779922183   16.69574227095074
H       -10.24779521487678    4.78984403650325   15.00456920417052
H       -10.94333703647008    6.23393255628800   15.76474859956651
H        -3.70675523463004    6.91023481128766   12.77167593772130
H        -1.26222863729275    7.15419970880983   12.61198529845687
H        -0.78898181614473    2.93745736417874   13.11126687041950
H        -5.91656194508282    6.41566377259170   12.80813804750493
H        -8.23906761721105    5.62283690802880   13.00477442588971
H        -6.83997428115503    1.63759689438209   13.66573036980378
H         1.03652201476914    3.51374892702549   11.88119299152949
H         1.39832910802313    3.73170360515098   13.61402974763523
H         3.07459546981137    5.49490034282596   13.01987888310747
H         2.70124442968528    5.27323308089771   11.31098101336234
H         3.45589485785950    3.95781343261430   12.22468425802172
H        -8.91251936014930    1.71856094664143   14.80634900817367
H        -9.02392691355299    1.23612127048549   13.09238336555981
H       -11.34969818236869    2.15394149876270   13.00724513371038
H       -11.24171242363908    2.58144760566447   14.71655761384666
H       -11.18617153837856    0.88109507493843   14.23007598005963
H        -0.58213971325590   -2.68067295145138   10.24458826169798
H         1.53609050537707   -1.94077847918330   11.25888774265656
H        -0.62151388690769    0.54004175221808   13.99567239606389
H        -2.66787394980428   -3.30319068280236    9.58377985868135
H        -5.02162976877356   -3.80234058228146    9.06571306018585
H        -6.29059294851485   -0.96806298864026   12.00154270838097
H         1.54146444552236    1.44867749080364   14.16188962795731
H         1.31458484682958   -0.01315866025292   15.15556138854304
H         3.98081273549743    0.92741606333592   13.98854358259512
H         3.74870775008731   -0.49464512190501   15.00582822590151
H         3.46481857442153    1.12308135353581   15.67320410076099
H        -8.20410137401166   -1.16316718650236   10.66561243882049
H        -8.05460609403775   -2.42979514509113   11.91241406332408
H        -9.39863997268995   -3.97607689810412   10.48485943219284
H        -9.52900161441891   -2.73038297196930    9.24404700082569
H       -10.30268809888136   -2.48712053465190   10.81849796290317
H        -3.90970669991069   -6.00857983111832   14.74631416711484
H        -1.46838126878951   -6.29643233837423   14.85313229763627
H        -0.97946845161689   -2.08108855715720   15.36610752651463
H        -6.06827321331937   -5.48749885831475   14.53886191613184
H        -8.35703005359021   -4.71690208583976   14.34508481254595
H        -7.08710634051314   -0.69118101093489   15.03615266543391
H         1.18768821315830   -2.83942166430777   15.94463689419586
H         0.89623944034389   -2.76666348774766   14.18313750490391
H         2.55632337037154   -4.60004581738443   13.85107726952154
H         2.87858881302741   -4.62961137999548   15.58649232094828
H         3.28692006747639   -3.19088137751308   14.63217123720675
H       -10.33554850565868   -3.69048549888489   15.10534583228618
H       -10.02955184448783   -3.52812429137361   13.35443468109697
H       -11.34800061501616   -1.41980821690930   13.32077436163730
H       -11.65254309197787   -1.57164274918380   15.05487281079342
H       -12.32286061462248   -2.76598583184552   13.93256636509167
H        -5.66347669977020   -3.42776624535203   18.64068996089210
H        -4.18650847305701   -4.09798728220425   19.37806617717990
H        -4.31914990610298   -3.92558414824656   17.61068146880146
H        -1.82543176018293   -2.77836808456407   17.84013749307560
H        -1.80129145620715   -2.67202633405264   19.61879234637363
H        -1.51817975574630   -1.21913477386822   18.61685058945308
H        -6.01254193022385    2.48411979549628   18.92331799871713
H        -5.99944442135199    1.80696074735108   20.57218949230947
H        -6.36169391905416    0.76971091950717   19.16613946680363
H        -3.58434369463646    3.04208823289137   20.90334671197389
H        -3.46835873370569    3.58849672620468   19.21163779519978
H        -2.13802489780387    2.67888040404827   19.92814969555733
H        -5.31547058161335   -1.29188544531513   20.50087358390052
H        -3.82915998890013   -2.06356867854595   21.06982494591835
H        -2.56465013837842    0.00573141011890   20.80232163794726
H        -4.05955818636500    0.47112915218159   21.62677180614320

