71
CSD_code = OMUHEL | q = 1 | S = 0 | Stoichiometry = C33H31ClN5Ru(1+) | MND = 6
Ru       22.14292272744199    3.39036561869006    0.78364225615063
Cl       23.87998027400650    2.91155584874992   -0.71531968669341
N        21.69389942534947    1.58611637995164    0.54020704575626
N        23.28076035738315    2.56803118321693    2.20832568000856
N        20.86460913224207    3.55770006114488   -0.75168016354208
N        20.66746125377744    4.03801266211817    1.97168238234707
N        22.64770714355078    5.32401146733425    0.99044529152878
C        20.90823263246284    1.25260237096706   -0.50272263312221
C        20.69299274875698   -0.08827264037410   -0.81456978843486
H        20.06794928004212   -0.36415222341802   -1.64751566094989
C        21.32284379448241   -1.06017326033611   -0.04766136301645
H        21.17088738124726   -2.10313438919207   -0.27505880046561
C        22.17620545900775   -0.69627296181144    0.98436493735814
H        22.70695558301445   -1.44532576473285    1.54802652333562
C        22.35820622765176    0.65951500447331    1.25853168205892
C        23.27368495663992    1.26810137277807    2.21275850469499
C        24.12101220475598    0.42165264356589    3.10411919129344
H        24.88442486169673   -0.08939899076810    2.51789096476808
H        23.51045660614761   -0.33688605653800    3.59090517906679
H        24.61167795551598    1.02784581748271    3.86155431339529
C        24.18615803790350    3.35667142412706    2.92480242310900
C        23.69741232745673    4.31765255200278    3.81047666351660
H        22.63373976950567    4.36622388590342    4.00750894635288
C        24.57290810467035    5.17919296722716    4.44243124127191
H        24.19185338720018    5.91468441907050    5.13468081461050
C        25.93360108666626    5.10197265975583    4.18870554450615
H        26.61274317897217    5.78155125053940    4.67912949653581
C        26.41954092866396    4.15233304753316    3.30512983374228
H        27.47762699544722    4.09248959750012    3.10282360648047
C        25.55597291508405    3.27371473063051    2.67762456617106
H        25.92247244124042    2.55227531437638    1.96306682758450
C        20.40477941949706    2.43053938705238   -1.19771280415698
C        19.45583746892220    2.30221772880404   -2.34222792012655
H        19.20391526431474    3.27899512523079   -2.74744502186523
H        18.54343372120591    1.79831773276346   -2.02568599245623
H        19.91257287543802    1.70326441268803   -3.12917064855217
C        20.46596391566530    4.82593240907043   -1.18780317689166
C        19.20472982902951    5.32278531423006   -0.86294095815172
H        18.49341342185123    4.68444188535843   -0.35621674781114
C        18.88589869012728    6.63327649741434   -1.16988869288233
H        17.91057181919416    7.01722781607062   -0.91247838291435
C        19.80859091132960    7.44575736739072   -1.80701185356301
H        19.55356515579014    8.46641335418413   -2.04545394138187
C        21.05727970451487    6.94561764955869   -2.14389580651934
H        21.77315027112724    7.57431540502667   -2.65037709091814
C        21.39374311750103    5.64252871137477   -1.83329809077097
H        22.36392092958323    5.23668993832768   -2.08367077753415
C        19.68308297888548    3.27918258080961    2.45946289691263
H        19.78526194109117    2.20928424671817    2.31807521274752
C        18.58804466127205    3.79818732977432    3.11318083514098
H        17.82126599563956    3.13770704171130    3.48547392955620
C        18.47595391212174    5.18122173364221    3.28617895038831
C        19.50863347037321    5.96350633311022    2.79123680794285
H        19.46764490473571    7.03429823867155    2.90442071811520
C        20.59260676571649    5.37800141430130    2.14189837234697
C        21.73701769168926    6.10974458201575    1.60786046341905
C        21.91827678849083    7.48409643076892    1.72454790424456
H        21.17134991976267    8.08959663110050    2.21173117214051
C        23.06063928846254    8.08507826780622    1.21479158726923
C        23.99967533754390    7.24879044876262    0.61045681792300
H        24.91364656286988    7.65479504947519    0.20761082187130
C        23.75633519908729    5.89478017174436    0.51942564598355
H        24.46576727642571    5.22952101158891    0.04230976023104
C        17.30180320971866    5.77344946668383    3.98512874918396
H        16.37486259462887    5.36883292305555    3.58376530876583
H        17.28950472445695    6.85515523592581    3.88866887916714
H        17.33558394839548    5.52089304249510    5.04462957593922
C        23.28792101324026    9.55323988736705    1.33072306409143
H        22.34758233936654   10.09032068378514    1.42186572361585
H        23.83432659401060    9.92800551892959    0.46909211895479
H        23.88514718893321    9.76263500324646    2.21853677111968

