41
CSD_code = OMUVAU | q = 0 | S = 0 | Stoichiometry = C15H13CdN5O7 | MND = 7
Cd        2.90811090912787    2.83608229425532    3.19684697279847
O         0.73525290320773    2.79202364315039    2.91796726916770
O        -0.20573467368575    1.06801145730435    2.09961021310637
O         1.89397225012288    1.07034499558025    2.44021931950257
O         4.72421163945803    1.46818173256468    3.50552886463532
O         3.16826992793087    1.57624914922557    4.95515759313260
O         4.58374417664367   -0.01315762129486    5.02828213023514
O         5.17948054533136    4.18869677386845    3.74673889797943
N         2.20671279859739    4.40934457430464    4.81873716427937
N         2.70642264237289    4.88495805627628    2.21221103896960
N         3.72380743768262    2.77332042229886    1.00483167516063
N         0.78623946868587    1.62677913332602    2.48377259968731
N         4.15699305623782    0.97560654741588    4.49854552233127
C         1.74936296155338    4.03324069960987    6.00096148656549
H         2.13206509555088    3.09414934449712    6.37840885946181
C         0.82715768990469    4.77750015189785    6.72490088189414
H         0.47881690775179    4.42987938687429    7.68429255766890
C         0.35855904639094    5.95989491080466    6.17808902504950
H        -0.37309805342348    6.55960861484776    6.69902250298570
C         0.83732927249535    6.35767328979020    4.94102968678518
H         0.46812009867292    7.25937566125225    4.47879394710806
C         1.76868418280116    5.55243952024198    4.28871669984126
C         2.30029522151796    5.90150458707620    2.95834230075158
C         2.37534084509830    7.21645046842119    2.49520834346532
H         2.07574130958400    8.04266275999087    3.11934287004214
C         2.87581926777326    7.44222031250036    1.22494146269920
H         2.96005023517659    8.44903912703078    0.84345746470485
C         3.26991986684698    6.36694566554038    0.44685944232602
H         3.66845466064583    6.52919416295520   -0.54109054055580
C         3.16647476703711    5.08302781981974    0.98335859898633
C         3.55920501026283    3.86299425299179    0.25212826215678
C         3.73237356612118    3.82850885411052   -1.13024952355020
H         3.56347429669822    4.70574053719123   -1.73392142604633
C         4.09982795101604    2.63335858839320   -1.72739504184419
H         4.23266442861289    2.57893880711978   -2.79784800176002
C         4.28909055159933    1.51620255600405   -0.93144664428038
H         4.57992349228328    0.57003603997622   -1.35838976138748
H         5.55267248588657    3.33744663353632    3.47510666177078
H         5.26645976139037    4.21693579666983    4.70442038542035
C         4.08278422282999    1.63578979111243    0.43723293258333
H         4.20584777617041    0.79530050149108    1.10647730618561

