35
CSD_code = ONADAJ | q = 0 | S = 0 | Stoichiometry = C15H10AuClF7P | MND = 2
C         1.63069943349924    5.37693174693522    3.02081329161070
C         1.80730646100023    5.24971431788306    1.49781885134577
C         0.23272908518506    4.89254916383686    3.43278672295037
C         2.11341906631492    7.06395224978169    5.31978628378737
C         1.17050198743118    7.62392766659683    6.18037167947604
H         0.27779543399122    8.07791250499792    5.76906739150113
C         1.37703706100413    7.59266508736774    7.54650192007333
H         0.64278979297307    8.02490808325265    8.20856153941159
C         2.52359296781982    7.00789923248794    8.05916697133330
H         2.68466156384296    6.98064440797415    9.12614741266540
C         3.46811196157209    6.46224060276997    7.20411387317736
H         4.36404941678041    6.01173470085108    7.60376924709479
C         3.27521429537658    6.49309419368270    5.83547576172882
H         4.02302310872872    6.07306523045900    5.18161490516246
C         3.35160190682261    7.71327232744232    2.81578429195691
C         3.38512739597844    9.03404026544569    2.36946367995326
H         2.48647215697927    9.63541561982618    2.43096612398776
C         4.54943498557024    9.56125695199662    1.84385661100519
H         4.56651649798593   10.58309638149050    1.49752552402957
C         5.68517231399028    8.77279821157471    1.75629368572736
H         6.59429313636231    9.17963381318702    1.34051134572097
C         5.65422239636071    7.45912670504064    2.19548869849171
H         6.53633253936357    6.84172134199440    2.11991735630745
C         4.49703588756233    6.92274952397535    2.73045422097686
H         4.49628496405012    5.89144701659078    3.04903192424375
Cl       -1.65062760957130   10.01008944102157    2.73677219104151
F         2.55374795448481    4.58002211358590    3.64421542270225
F         1.06173590935562    4.29239806582453    0.95333156027613
F         3.06879246529214    4.99410765811598    1.16826880106833
F         1.46781840812367    6.40561299628084    0.91130949023683
F        -0.69651003678813    5.39111527440959    2.61807238203941
F        -0.06368494345140    5.31393116052519    4.66627757620058
F         0.12205535653039    3.57002041258415    3.42865749124991
P         1.77035148379282    7.20963595585570    3.54372466422925
Au        0.01359519570218    8.53656957433960    3.07628110723958

