48
CSD_code = ONAFIT | q = 0 | S = 0 | Stoichiometry = C21H22N2O2Zn | MND = 3
Zn        0.78761656231925   17.21849141057302   24.20300996179076
O         1.75230610094342   14.99403963900401   20.85334885618286
N         1.68345636861803   16.15293465600122   22.77384718178156
N        -0.61857311279133   17.90831988016668   22.96285966233229
O        -1.56122599325764   18.33202714981055   20.97141298294392
C         1.15681541779047   15.96984764866355   21.58529459019615
C         0.10821153133857   16.67270926135493   21.01077247360121
H        -0.12654845069414   16.47656099291670   19.98011881951991
C        -0.65113129822401   17.61926106630304   21.68266307048190
C        -2.17617783618881   19.26321114109714   21.84284597928295
H        -3.25708169856213   19.09750055015578   21.83287778001748
H        -1.96478370982201   20.27714310650781   21.48574238133124
C        -1.54478205358437   18.99258857614345   23.23134481062296
H        -2.30363861047544   18.66054426563235   23.95161698804701
C         2.74932312157935   14.38507976822509   21.65319377926545
H         3.70654774421521   14.43859005988909   21.12786372162182
H         2.48488501766577   13.33345364051641   21.81206680968941
C         2.74875208854206   15.18928266520051   22.97732538463894
H         3.70073269636426   15.71892069757334   23.11517283669588
C         1.33001361664277   17.65053057148926   26.09486553925491
H         0.46896538940403   17.90356010010125   26.71398295252231
H         1.79497570918131   16.78560889885290   26.57024977977350
C         2.31729659898450   18.81952097934264   26.17288081991090
H         2.60098766550076   19.00580771581479   27.21086970963174
H         1.87795810603202   19.73340323529060   25.77727182491875
H         3.22598006693713   18.60736154207142   25.61244784178511
C        -0.81582052234551   20.18647740585705   23.79655275532904
C         0.37759933094767   20.60547849961795   23.21918359660459
H         0.77186847908006   20.07527110617740   22.36303393931716
C         1.05768716697976   21.69532977266191   23.73219031740310
H         1.98520388840177   22.01205938491084   23.27824516566894
C         0.55206362090435   22.37781825689510   24.82625503289055
H         1.08496821334238   23.22647027178281   25.22882974375057
C        -0.63622893440524   21.96594761271363   25.40460190875822
H        -1.03254105693243   22.49343262374632   26.25971258805339
C        -1.31669458157324   20.87494101820197   24.89249536134573
H        -2.24213921673452   20.55351520411221   25.34865172892271
C         2.47871363893185   14.33895385115572   24.19325129019816
C         3.48757015795381   14.05918055746936   25.10423085797654
H         4.48044983201327   14.45291250113936   24.93989489704295
C         3.22720911263055   13.28458692462181   26.22123035430017
H         4.01871781609421   13.07459481348115   26.92552555591709
C         1.95499406280060   12.78441962859155   26.43869218443076
H         1.75140570805900   12.18304805820074   27.31225262495674
C         0.94381052346923   13.05811393521570   25.53294926620286
H        -0.04978449112096   12.66768514498179   25.69703090362235
C         1.20358727192185   13.83055628638690   24.41520531489902
H         0.41507894103579   14.03390792336151   23.70273807462528

