87
CSD_code = ONAGUG | q = 0 | S = 0 | Stoichiometry = C44H33N9Ti | MND = 5
C         1.57622038755423    3.43692467773315    8.37911405641754
C         0.75146653850713    4.48908133150622    8.94308835885197
C        -0.35341091869812    5.17821311814518    8.46970179743758
H        -0.75070954036917    4.96842656171921    7.48941519927057
C        -0.91571107279674    6.13562474441789    9.29604645220972
H        -1.77692737235894    6.69255011129742    8.95732402345609
C        -0.39358611166324    6.39874016372507   10.56141147809433
H        -0.86182375523278    7.15340445413647   11.17620979292612
C         0.70832133550480    5.71353486498024   11.04257450856408
H         1.11784093293168    5.91030251408235   12.02073901142071
C         1.27830481884990    4.75400255958392   10.22092507198897
C         2.41535510474962    3.86748407840857   10.37989560019653
C         4.21542013332019    3.08276259544879   11.61216505070863
C         5.81550248201323    1.59375564807622   11.27136843225292
C         6.08922276584192    2.19044476813388   12.56561072474464
C         7.08496514404175    1.98563448142218   13.50698268524328
H         7.86535759833376    1.26285459675274   13.32974267460254
C         7.03706137476748    2.73976410519293   14.66670277538750
H         7.79853019255444    2.60598570861435   15.42099059139183
C         6.02434917874649    3.67250093834531   14.88417440197317
H         6.02279421357845    4.24136827028015   15.80240025374064
C         5.02510631570223    3.88189845124770   13.94979167313503
H         4.23728925476829    4.60052246724736   14.11083194200690
C         5.06519717672654    3.13007402293757   12.78645244472455
C         6.25716240458444    0.02816883006402    9.62546628894302
C         5.25186883118873   -0.58693092815214    7.75352548073172
C         6.37378180706158   -1.49015101821940    7.92273728078732
C         6.85121729214609   -2.55187843034986    7.17102346441497
H         6.35008131434458   -2.84991319145093    6.26377692343023
C         7.98188359380635   -3.20544026352961    7.62895930697327
H         8.38045455274379   -4.03760269355321    7.06735427786209
C         8.62105936356985   -2.81266002019411    8.80377711175096
H         9.50134753028440   -3.34867863476533    9.12697444389425
C         8.15117267871731   -1.75277332717555    9.55986267321557
H         8.64027727949986   -1.44099625142244   10.46893137546253
C         7.02038526394329   -1.09210938795328    9.10755783832020
C         3.45796849383243    0.20560279666852    6.51766602674113
C         2.02448105578242    1.87728153941032    6.72775021526608
C         1.69302451101319    1.21776200690961    5.47832594452489
C         0.72501793989489    1.45245153814265    4.51522511661577
H         0.03625225702600    2.27545853442086    4.62053551208671
C         0.68252127303611    0.59933534083442    3.42610961397857
H        -0.05826967457020    0.75523145756179    2.65571083842008
C         1.57811132340933   -0.46126113925019    3.30017353253113
H         1.51153341402078   -1.10500894266107    2.43536811768662
C         2.54638447628327   -0.70390637592839    4.25874859966194
H         3.24213988956572   -1.52317192178193    4.16953865833385
C         2.59695978065404    0.14664273890830    5.35168592867780
C         6.17617423981368    3.87255749571774    7.58795259043383
C         6.43184570587405    5.14673917597877    8.17513636305366
C         7.42905295606057    5.94757477122182    7.65850199864030
H         7.62014978149914    6.91567383323373    8.09618046719743
C         8.19438080319284    5.53265021660689    6.57938863975320
H         8.97314428785922    6.17218274645915    6.19128033236206
C         7.95091282188599    4.30057640966736    5.99179073829757
H         8.54469040825195    3.99751151026929    5.14276618618610
C         6.96537921040690    3.46393563983136    6.47257017837149
C         5.52888956833325    5.57693298025834    9.30547179709504
H         5.25887905810864    4.66402578978768    9.85810631321731
C         4.24421138191918    6.16209161392939    8.70400173193453
H         4.47435054782058    7.05177048391561    8.12008766625970
H         3.54092175271156    6.43043775061915    9.49058754450545
H         3.77559944331947    5.42504148894920    8.04744545410526
C         6.16698128183436    6.56149683753839   10.28127977927504
H         6.30401433556129    7.53733074086804    9.82086227642858
H         7.13252291093300    6.19282284820988   10.62019323369733
H         5.52135846822049    6.68440140162992   11.14847005014644
C         6.61734060148413    2.14223737693630    5.83214572126984
H         6.27228935366255    1.48162194277030    6.64186841985236
C         5.44210881887288    2.36364932286857    4.87063889868739
H         4.60290166502151    2.80787911704578    5.41125017944520
H         5.12030734346953    1.41891354645358    4.43580692591167
H         5.73529729511255    3.03850284659327    4.06809430675118
C         7.78125558580318    1.46199480202225    5.11728646981215
H         7.49347944931219    0.45168021686847    4.83348359091770
H         8.64901519645506    1.40217738051886    5.77034545250082
H         8.05631424557826    2.00152895801267    4.21383219374485
N         2.55475562795566    3.09621087338388    9.26335180744853
N         3.16322341341511    3.85590863705055   11.46133579224784
N         4.69413433363632    2.15167248322262   10.73634845055611
N         6.54412020804769    0.62291128449356   10.76366932959450
N         5.21394114444410    0.29763017868031    8.79242490644736
N         4.43966543250095   -0.64466522506592    6.72164384125803
N         3.08110593243525    1.24772155136948    7.31342459212365
N         1.33425013106741    2.89034552465277    7.20642500884032
N         5.21200596037906    3.08825836941573    8.06100596669433
Ti        4.14827646852380    1.98415958805055    8.82510123387763

