73
CSD_code = ONAJUJ | q = 0 | S = 0 | Stoichiometry = C27H34BIrN6O4 | MND = 6
Ir        3.05097253004381   19.81153467524071   11.94256819480842
H         2.08522989888879   20.48351890133926   10.97923296388913
O         1.81092704089123   20.47494797585592   13.49287886520968
O         5.56038471224352   23.19023783529553   11.84169798979768
O         6.06845870330008   20.99692386439296   11.88690946759444
O        -1.18909279709287   23.90659872791103   17.88167097167047
N         4.39216902791936   18.69483400336474   13.25221820302965
N         4.89859720741999   17.55013635777136   12.76954223798291
N         2.15176504232351   17.91560466020038   11.63610474739848
N         2.94641283352848   16.85576111901779   11.41462754197365
N         4.24535275700111   19.31164528228123   10.38397699495679
N         4.82134369798486   18.09684621840342   10.35635162135844
C         4.90193164058263   18.88322449723748   14.46380438112580
C         5.76714527704464   17.82743899355514   14.76659953168505
H         6.33025627568830   17.69339013053274   15.66825781781381
C         5.73936773603367   16.99815782811467   13.66300818257925
C         4.58641425632800   20.03014660127971   15.35597443228876
H         4.96169131239989   20.96150492045301   14.93518271412125
H         5.05230689507568   19.87115485702610   16.32617116373764
H         3.51184884367301   20.12967813284468   15.49454019236600
C         6.47291862984549   15.72406569736485   13.44266408259594
H         5.77931852390835   14.89844590032979   13.29154075384948
H         7.09043573570888   15.50860370682143   14.31087559421420
H         7.11228656639335   15.79282141024732   12.56411915005922
C         0.89344017198543   17.49366396632503   11.67120772715787
C         0.87612227308273   16.11108658908621   11.46420362574549
H         0.01729363378561   15.47144131438023   11.43469876409039
C         2.19898487421952   15.74164364513226   11.30656202171402
C        -0.26017296206017   18.40553933168640   11.88126318297165
H         0.04574694991089   19.25563025484182   12.48395374862301
H        -1.07369913178066   17.87572798576967   12.37175722035267
H        -0.61896656423816   18.78117122258309   10.92335583056544
C         2.76020912092476   14.38697855857449   11.06201013403103
H         3.34047043505050   14.37086561211485   10.14112861847119
H         1.94915226608912   13.66822379445283   10.98031022898126
H         3.41454729769375   14.08676774308559   11.87906796397235
C         4.68746930927449   20.00663070609044    9.33319412696633
C         5.58994640143309   19.21150644671241    8.62411534114723
H         6.12109616150133   19.47850417186500    7.73295942982569
C         5.65002808895538   18.00900962802660    9.30247665176906
C         4.25409825239668   21.38137825234723    8.97243727914813
H         3.20922711435300   21.52656553210633    9.22965675172183
H         4.39740340169448   21.53955781882013    7.90619587854698
H         4.83225587786936   22.13030336947040    9.50962278948601
C         6.45830270431317   16.80553461820612    8.97449771593670
H         7.12252180300994   16.55096096928236    9.79829872646032
H         7.05554766828906   17.00210576419659    8.08820728250340
H         5.81488490062756   15.94893511809034    8.78229034461635
C         2.06698599463282   21.64535040928177   13.89931456571316
C         3.22920559160939   22.28985597176331   13.37664330908868
H         3.60802807298717   23.21981369299228   13.77536968325567
C         3.89070600399956   21.56113613720907   12.42624796677183
C         5.22494257036896   22.04135429154224   12.01512771518870
C         7.40088525022490   21.27012345536596   11.49265410875147
H         7.50417222186299   21.09068956972406   10.41967767404693
H         8.05107490857720   20.59366348062914   12.04571966399495
H         7.65123772593426   22.31039997133366   11.71380242972551
C         1.21561494782977   22.24142035637789   14.93214696907731
C         0.31369355172011   21.43068748973267   15.62285478112055
H         0.26786890498025   20.38113425513723   15.37304131637631
C        -0.50336001995178   21.94018690868647   16.61091791474492
H        -1.18259782801602   21.27841650965879   17.12486421918416
C        -0.44133093057909   23.29498904797829   16.93000090332354
C         0.44983431791644   24.11766137980055   16.23260273894823
H         0.47628694875414   25.16591727415795   16.48494727640643
C         1.26493668239380   23.60172970420563   15.25347244917873
H         1.93100716427168   24.25952677608666   14.71926225089291
C        -2.11346568666941   23.13888004250407   18.61535821071537
H        -2.87769590390090   22.70199358494863   17.96495731574035
H        -2.58544060925458   23.83145634626547   19.31027560699575
H        -1.61655049535576   22.34345692405137   19.17970058264811
B         4.47297034116238   17.02108315389068   11.39756567907194
H         5.00623787899468   16.00101855655391   11.14608548812258

