75
CSD_code = ONAKEU | q = 0 | S = 0 | Stoichiometry = C28H34BIrN6O5 | MND = 6
Ir       12.14508431590716    7.99940801382905    3.63194273439364
O        11.14196890590757    8.99166022986253    5.20258494952684
O         9.06142327136262    9.53795646578336    5.78133422725354
O        10.68559396977005    6.53853537908417    3.99203914574115
O         9.34445317797867    7.64140911418135    0.94592485019574
O        11.05153834541948    8.99364393236463    0.37282425977026
N        13.69372959042654    7.14786187162891    4.79166612368917
N        14.94536624829128    7.14873437740632    4.30372959132770
N        13.04657525940314    6.89898330355711    2.14613679285399
N        14.35742504420991    7.11116595730440    1.90484742120760
N        13.46254944911709    9.55155883768533    3.36635662255420
N        14.74455938597569    9.26905439446169    3.05906855891036
C        13.69662032283297    6.54225117946417    5.97080480970593
C        15.00286963930674    6.13291091084146    6.25681273337697
H        15.34099493894565    5.61698110232889    7.13229611459368
C        15.76668184955297    6.53586190487221    5.17639360250242
C        12.46283566692123    6.37383476952860    6.77820821964088
H        11.92134338065460    7.31649339889435    6.82112175860058
H        12.70883092576528    6.04893201055533    7.78561539289139
H        11.80935725221284    5.63509049371204    6.31535229688073
C        17.22482988994265    6.35875640896061    4.95011605343227
H        17.40617008362072    5.78952384944599    4.04020240777269
H        17.66066690373150    5.82651515639849    5.79100469315203
H        17.71872987249399    7.32350318873719    4.84993087136763
C        12.62084280017641    5.95429986277066    1.30314203817439
C        13.67821386603399    5.60072551584424    0.46062735145423
H        13.65002265464789    4.88297172530825   -0.33379804290633
C        14.76161097919549    6.34954781323131    0.87420578331929
C        11.30290856899776    5.27225413719478    1.34437486273836
H        11.11983303292131    4.91229689749980    2.35391907457834
H        11.31704545224281    4.42738322602143    0.65992005390234
H        10.47824876924330    5.92371640456639    1.07205890625235
C        16.14249573816302    6.36031716712062    0.32634787222304
H        16.45731921942512    7.37731402878629    0.10412906745425
H        16.17464207979724    5.77055615413530   -0.58559476470197
H        16.84539489478365    5.93645378904855    1.04128965889026
C        13.36016193623335   10.87689265273290    3.50307501272816
C        14.60983247980849   11.44990507110795    3.25776589398187
H        14.85031354426667   12.49285522100511    3.28634256904810
C        15.46267669823232   10.40095842433938    2.98219970861525
C        12.14661776584436   11.64803426024364    3.87846541809076
H        11.54204740823228   11.87157082240061    2.99998796763720
H        12.45189976383469   12.59311510854801    4.32198567988708
H        11.54713823042654   11.10074968825383    4.59717617126503
C        16.91184150835923   10.44786894075194    2.65813920730720
H        17.49285265630468    9.92672635051887    3.41637989060656
H        17.23837625741338   11.48315798528684    2.61622675137818
H        17.10729541629162    9.97601616360259    1.69768304093919
C         9.89670954137846    9.07981171485513    5.03718525545451
C         9.42366454666853    8.47158381349155    3.63484247699538
H         8.41925096130367    8.80302380231295    3.37201889732275
C        10.51688070826633    8.87380014316985    2.63858689484088
H        10.64522756728008    9.95615941302256    2.61145465319952
C        10.21438556472273    8.42385321119411    1.27225877912219
C        10.92500794600190    8.57014931615518   -0.97294385774140
H        11.52730286688847    7.67283030192617   -1.13843527852458
H        11.29009907730953    9.38415903791755   -1.59582190694620
H         9.88054692113245    8.34780071889342   -1.20316461974006
C         9.54408686709248    7.04276129131677    3.94851594214785
C         8.37034455624654    6.24775288078911    4.31485388684662
C         7.22490879279802    6.84394565795913    4.84374443983258
H         7.20285697000997    7.90638070928020    5.02870149796354
C         6.13990332323584    6.06456330542978    5.19218921577275
H         5.26337833408646    6.53471575629992    5.61376728387595
C         6.15490049615053    4.68588272366105    5.00945954005365
C         7.30288135328417    4.09611209626788    4.48843502538238
H         7.33301582402696    3.02491785510596    4.34849988688465
C         8.40041703112921    4.86115124317382    4.15621003365690
H         9.28892326201464    4.39722251943434    3.75622733862347
C         4.96077473360122    3.85109069100317    5.35061198713498
H         4.38286463768917    3.64785471356499    4.44833504598188
H         4.31478084980313    4.36487415759697    6.05802213646387
H         5.26390295608208    2.89586777726629    5.77420794171308
B        15.22925756870654    7.82349590969721    2.95038101072528
H        16.36909733246807    7.76482557800529    2.66939308874910

