35
CSD_code = ONAXEH | q = 0 | S = 0 | Stoichiometry = C13H15ClN2O2PtS | MND = 4
Pt       11.21133237262275    6.48263045611034    5.10151376889866
Cl       12.60573308598920    8.26591307907203    5.01253083618952
S        12.89067419163989    4.98794778498745    4.69392627242766
O         5.67501767154414    6.62768965517012    5.88711485489380
O         9.66324352190856    7.77237414941997    5.43455946706550
N         9.97741070180415    4.95587666510045    5.23224777772714
N         8.71431660174950    5.00711376770599    5.42098223865417
C        11.88233172030166    3.51997725967748    4.90850797369117
C        10.51018308669539    3.66848109595749    5.13321684278263
C         9.72904288618658    2.51558508395735    5.26157495090025
H         8.67150574691718    2.62676862235663    5.43538436080312
C        10.30818150665652    1.26740999407269    5.16537991617785
H         9.69193552616946    0.38725859932449    5.26623419998507
C        11.67059136558881    1.13403380399749    4.93560752996508
H        12.11669504889723    0.15540527777673    4.85566961860984
C        12.45574054393340    2.26498302305252    4.79854618285289
H        13.51369569764791    2.18150935566950    4.60217277532957
C         7.97012562950621    6.09175098830077    5.56119867325602
C         6.53428829139042    5.78435394956435    5.73714142830769
C         8.45995843380108    7.44972794032289    5.56596440104628
C         7.50584824606924    8.58777128592277    5.75268008409084
H         8.06725867587958    9.51922203001542    5.73601510057418
H         6.97119105708579    8.48443103920828    6.69420593661724
H         6.75725996075284    8.58369524132718    4.96346559010956
C         6.18776776722444    4.31354692247397    5.71709225656351
H         6.70245098100469    3.80255573752277    6.52642077228655
H         6.49771105437326    3.87157603233902    4.77415683483368
H         5.11365480869978    4.20303464413324    5.83951794519206
C        13.79984567639696    4.96547534675251    6.30516678170155
H        13.09165506504106    5.21442669897843    7.09677581883424
H        14.15751234907870    3.94401036117261    6.43514110677907
C        14.93592785929479    5.96452110166981    6.24437365737579
H        15.44796607638648    5.99707296208291    7.20306063520413
H        14.54540632855818    6.95610742028259    6.01929640102258
H        15.65024046320313    5.68756262452123    5.47295700925072

