121
CSD_code = ONEGUK | q = 0 | S = 0 | Stoichiometry = C50H66N4Zn | MND = 4
Zn       10.47300004141549    4.24624871747778    2.33187692472826
N         8.56632903235634    4.10373865967491    2.97183112693609
N        10.48369823907523    2.46326918609262    1.58900790300009
H        11.31566457949349    2.11902379869017    1.12753630855187
C         7.87338765346890    5.31440562989455    3.18093681422022
C         6.96885630824230    5.78092775363856    2.20867197602729
C         6.38118166754344    7.02653697951948    2.38061992164560
H         5.69789940135181    7.39821609902558    1.63176663938150
C         6.65227741860849    7.80628306114564    3.48720484336389
H         6.18059866863882    8.77097232972506    3.60260700597194
C         7.53652773415941    7.34197019972218    4.44016307209743
H         7.74858182333925    7.95239927456575    5.30493922861087
C         8.15399525232222    6.10816508736849    4.30552862764377
C         9.11737330117315    5.64971458241418    5.37700472653508
H         9.39049096357082    4.61205755033870    5.16414680975438
C         8.50035066575063    5.71120316553179    6.77866460612577
H         8.37024811998234    6.74106392424226    7.10231120684658
H         9.15608744496885    5.21602028586534    7.49274038574434
H         7.52787864567891    5.22524429235041    6.81121405145902
C        10.38836314952768    6.50212293836200    5.34680888609484
H        10.87015874427171    6.43725163899792    4.37524068506104
H        11.09003071618389    6.16405228536076    6.10754667570513
H        10.15177770849540    7.54596998913207    5.54387504932956
C         6.63690738772822    4.99808005344812    0.95514177902077
H         7.04136839428572    3.98770778836885    1.04448619160659
C         7.27991129353968    5.63713342542461   -0.28084005324180
H         7.05456033102300    6.70085817541298   -0.33288394937436
H         6.90072989617465    5.16163901192342   -1.18346563548389
H         8.35940364890888    5.50198779309705   -0.26022086013824
C         5.12195394322941    4.88804963668853    0.75781189005549
H         4.63694340890764    4.57837180486203    1.68038183872886
H         4.89897524981239    4.15377606719337   -0.01375938503567
H         4.69662772223549    5.83914957567846    0.44717123272721
C         7.89924193290312    2.96444489709454    2.92976409812116
C         6.51128058828404    2.88548804811655    3.46330726450212
C         6.20714514272691    3.38444975547787    4.72397034186717
H         6.98889087348249    3.83241540583427    5.31362521805473
C         4.92539406924574    3.28480538311668    5.23233558734743
H         4.70573749061728    3.67687762812971    6.21492430606357
C         3.92617509395266    2.68178471128675    4.48794973063830
H         2.92336381317110    2.60802769110109    4.88243793845778
C         4.22134464980600    2.16747903972983    3.23665868205684
H         3.44768481473173    1.69097640144634    2.65182572236137
C         5.50421084022713    2.26433444215784    2.72986134888443
H         5.72427944016736    1.86992407070611    1.74847029233782
C         8.39687048159661    1.74881074923839    2.45028999643975
H         7.73708580058120    0.91241701315772    2.59985243815402
C         9.60334546626792    1.50945830073428    1.79891554709320
C         9.93606751312574    0.10771400505709    1.27180378208947
C         8.84980975819817   -0.93573426070303    1.54424701968458
H         7.91224972332639   -0.66615595613122    1.06402395462827
H         8.68250761153048   -1.06118747931252    2.61113589078655
H         9.16782547564274   -1.89555501340562    1.14062979207548
C        10.13601123139333    0.19358625679716   -0.24910514876716
H        10.37254040068511   -0.79013067503744   -0.64942634289575
H        10.94716414135029    0.86771211652250   -0.51327539229729
H         9.22653709059165    0.55157798693801   -0.72774916801822
C        11.23071825320917   -0.37148566013163    1.94333439879506
H        11.49670255862650   -1.36088224979644    1.57674160563616
H        11.09576213680510   -0.42659538232557    3.02114322444812
H        12.06490748632569    0.29751479684033    1.74756219409702
N        12.37967045837460    4.38876023717343    2.97183163532230
N        10.46230178218541    6.02922770049063    1.58900611312919
H         9.63033597310674    6.37347190396510    1.12753268393363
C        13.07261349308039    3.17809389929779    3.18093623506478
C        13.97714439413584    2.71157371674100    2.20867008196945
C        14.56482053128750    1.46596495689011    2.38061625477623
H        15.24810241935868    1.09428726959052    1.63176193219797
C        14.29372674674002    0.68621760155380    3.48720077622201
H        14.76540665175124   -0.27847126594115    3.60260158465677
C        13.40947705217187    1.15052871236502    4.44016043401356
H        13.19742460836952    0.54009869111450    5.30493631316033
C        12.79200800627225    2.38433326096522    4.30552767955607
C        11.82863071782073    2.84278197171092    5.37700522669849
H        11.55551315805399    3.88043944533363    5.16414936171406
C        12.44565435254679    2.78129058286295    6.77866456111828
H        12.57575450699157    1.75142918429234    7.10231007949928
H        11.78991944285885    3.27647441616709    7.49274139515068
H        13.41812768651206    3.26724686354479    6.81121355229496
C        10.55764053684181    1.99037408206076    5.34680868494274
H        10.07584409489323    2.05524758140853    4.37524106972064
H         9.85597379093027    2.32844339671528    6.10754781801932
H        10.79422590712628    0.94652655814664    5.54387244602921
C        14.30909104570471    3.49442312099142    0.95514033640113
H        13.90462980773159    4.50479513055987    1.04448667401983
C        13.66608519059981    2.85537094261097   -0.28084109366089
H        13.89143665629924    1.79164637578445   -0.33288675074519
H        14.04526454964266    3.33086670596054   -1.18346682150202
H        12.58659281155906    2.99051598202159   -0.26021954451192
C        15.82404408214415    3.60445450521141    0.75780794392793
H        16.30905592058914    3.91413187161079    1.68037737112878
H        16.04702100041172    4.33872890719275   -0.01376305878509
H        16.24937044497355    2.65335513881567    0.44716572466706
C        13.04675663904749    5.52805460976396    2.92976525999493
C        14.43471716250193    5.60701235616110    3.46331048096185
C        14.73885047533718    5.10805226682261    4.72397473767666
H        13.95710366322501    4.66008761547915    5.31362895005437
C        16.02060071000794    5.20769718475098    5.23234189289059
H        16.24025565250345    4.81562646996604    6.21493159115329
C        17.01982097544538    5.81071673343953    4.48795680297132
H        18.02263160060881    5.88447423618420    4.88244658824494
C        16.72465344017640    6.32502102757424    3.23666474346194
H        17.49831419358345    6.80152297213816    2.65183244977126
C        15.44178798486733    6.22816517789295    2.72986552932461
H        15.22172078640966    6.62257482250093    1.74847384604207
C        12.54912790610739    6.74368824689308    2.45029016557276
H        13.20891186901224    7.58008249249804    2.59985298407910
C        11.34265373130187    6.98303931317092    1.79891363709230
C        11.00993196421573    8.38478269004530    1.27179923114269
C        12.09618882348262    9.42823174183600    1.54424294383564
H        13.03374986402162    9.15865292890795    1.06402211797599
H        12.26348886504216    9.55368664603038    2.61113194745843
H        11.77817357331041   10.38805176932028    1.14062362301823
C        10.80999126617026    8.29890803310648   -0.24910994693957
H        10.57346226507725    9.28262419137173   -0.64943318482201
H         9.99883930087990    7.62478125226330   -0.51328073282897
H        11.71946656080924    7.94091611218999   -0.72775163439706
C         9.71527974704686    8.86398269997397    1.94332673368016
H         9.44929561387163    9.85337858535337    1.57673193076225
H         9.85023386976030    8.91909411580429    3.02113572244783
H         8.88109124107783    8.19498147747964    1.74755404291191

