125
CSD_code = ONEHAS | q = 0 | S = 0 | Stoichiometry = C49H68BN4O2V | MND = 4
V         5.15531564020871    4.35982064104268    4.02070489269822
O         8.19612246925773    1.69431230060985    4.01693561104909
O         7.47604022489509    3.29900377788010    5.49992594404483
N         3.83612666156585    3.63624999588397    5.07891156586313
N         4.12713539117840    5.05296430994667    2.63008710819741
N         6.18218906994844    5.81467536718922    4.42294279162507
N         6.05361594551468    2.84091262935181    3.57949311959892
H         5.98387094590191    2.27064601406038    2.74826983297616
C         2.56617375830719    4.02059053678866    4.96054190875009
C         2.09173608996205    4.70361010453630    3.84427421387693
H         1.02508247778527    4.88204248254860    3.81681777991092
C         2.79709957166857    5.07817015303793    2.70101157020167
C         1.55690056323517    3.67988836832772    6.03393590713325
H         0.56330110416240    3.55959538087210    5.60802968548514
H         1.51279663312065    4.49422198557661    6.75894281229927
H         1.83253678725448    2.76780419326139    6.55946644954943
C         1.94560329385130    5.43887764077520    1.50209683491605
H         2.52761824204467    5.91377235033458    0.71676203158238
H         1.12803898006172    6.09618977703141    1.79221937028591
H         1.49547201306562    4.52920039886189    1.10089211584133
C         4.14424134507643    2.54251691695948    5.91517650221546
C         4.51247525264233    2.70686745574562    7.25884738376494
C         4.82816943452276    1.58621836789719    8.01636202281570
H         5.11355507072590    1.70620419069274    9.05096573592633
C         4.76632372241005    0.31749202038921    7.47802470566954
H         5.01693552292522   -0.54330485857497    8.08113185970087
C         4.35534784973899    0.15363515155859    6.16869240654290
H         4.27315128767809   -0.84346595414739    5.76396536282684
C         4.03271352933775    1.24469940458433    5.37628472146929
C         4.52936065369874    4.06674940353162    7.91586623552150
H         4.24505684334293    4.81567457432214    7.17036232278832
C         3.53644030286741    4.13491097863909    9.08091541941611
H         2.54137228930510    3.82468066685993    8.77261059527249
H         3.48148488573683    5.15553425353538    9.45437837080830
H         3.85216903899354    3.49036159607548    9.89826670493440
C         5.93251346042762    4.40611221989120    8.41578243717663
H         6.25748008428922    3.69425888993072    9.17298772195386
H         5.94102431041473    5.39973505863779    8.85682846868386
H         6.62555479751589    4.38657037332332    7.57956411109225
C         3.51079856653271    1.01644931287980    3.97334025700869
H         3.56627172526741    1.96619626746201    3.42735803861552
C         2.04130581733038    0.58368424187883    4.02506911478397
H         1.93095256582251   -0.32177727477089    4.61885937469824
H         1.67518348343343    0.38484786216593    3.01977257889749
H         1.42611145023417    1.36290171277650    4.46611658997433
C         4.33372868037297   -0.02729533235429    3.21260351436984
H         5.39779589281640    0.16686106799498    3.32808900744410
H         4.08143321301653    0.00374147504818    2.15406021041771
H         4.12398133762151   -1.03202096117443    3.57305919858169
C         4.75531976812641    5.54162650604431    1.45776965506620
C         5.04018570732026    6.91643954015524    1.31952978948050
C         5.66915569081069    7.36195675912292    0.16497146322747
H         5.88362030297713    8.41208597251565    0.04950830045893
C         6.02020503083565    6.49144790436670   -0.84690463914521
H         6.51215162100310    6.85994369354597   -1.73499037190416
C         5.72094382014553    5.15087320680875   -0.72084190890536
H         5.97536388195330    4.47585167542986   -1.52361943876512
C         5.08332139088860    4.66023238413904    0.41018813519410
C         4.65531794166524    7.93015612065009    2.37665323979901
H         4.60055593319358    7.40990620346050    3.33546120339388
C         3.28281097046853    8.54938508641629    2.08633498335560
H         3.10548449432675    9.37701828352828    2.77028216444029
H         2.48719425657446    7.82578734914210    2.21901517991691
H         3.24571329880678    8.92974007091443    1.06699832053796
C         5.67683242074398    9.06413642932296    2.50629288642801
H         6.69217689125176    8.68200134254772    2.45612514748016
H         5.54256095774721    9.56404930077492    3.46374716657922
H         5.54068902849269    9.80593437675102    1.72198179891053
C         4.72618596503585    3.18992832519669    0.45647028050615
H         4.33316745516366    2.96114345181475    1.45361411840141
C         5.95113240551449    2.30793850522180    0.18576995089709
H         6.24672174550782    2.36752058356096   -0.85950259425863
H         5.72135755117601    1.26712335553093    0.40698845962229
H         6.80004172318627    2.61368397284613    0.79350069293689
C         3.63770219821511    2.86828811008455   -0.57342121983941
H         2.74913907502753    3.46899329167375   -0.40324855593963
H         3.36172427923791    1.81754128745134   -0.50923807537719
H         3.99234359934820    3.06785793861373   -1.58230306149113
C         7.30360398232830    6.13296282051557    3.69786654586816
C         7.69682113617854    5.31842326046822    2.62060043128116
H         7.13112244007129    4.42446327947742    2.40394965837744
C         8.79070939919598    5.62792313945613    1.84194549412935
H         9.05731132276565    4.97219150335103    1.02419133822202
C         9.55815081856034    6.76405101802797    2.07944091119024
C         9.16430159877821    7.59172893352508    3.12021407974006
H         9.71922616537640    8.49850265561171    3.32106984097845
C         8.06438120252631    7.29810328286208    3.90273144997848
H         7.77446391691818    8.00277286741471    4.66823745113297
C        10.75429901906517    7.07420826521895    1.23106805026068
H        11.53183779557002    6.32460002352117    1.38097568562877
H        11.16450209307855    8.04995140348708    1.48016350858433
H        10.48521634194947    7.06707368115000    0.17563772714903
C         5.86433782861506    6.52023114543112    5.56632225856017
C         6.80867965040875    6.90531538049279    6.52951457421286
H         7.83671753602735    6.59348593912030    6.41506847845278
C         6.43887937614229    7.64391391732929    7.63489949995442
H         7.19362435704144    7.93194805067049    8.35445797239828
C         5.11656046013008    8.01716128404370    7.84798614506086
C         4.16660554659538    7.59410118966672    6.92655304762547
H         3.12644888864041    7.84823539449383    7.08053471951856
C         4.52380971697074    6.86062844416271    5.81164448707540
H         3.75398660379549    6.54345736039572    5.11348509771594
C         4.73377889545772    8.84844378865258    9.03552576472653
H         4.93417513142423    9.90259490228053    8.83884578410838
H         5.30916046287627    8.55925209114060    9.91315032425016
H         3.67452992609675    8.74260176506054    9.25867499857591
C         9.31891124167537    2.00229916956631    4.83492509742664
C         8.67396465827286    2.75119950557091    6.05328833423725
C        10.24383597020373    2.91332641018994    4.01464129416531
H        10.49198089072818    2.40527831440678    3.08512278099028
H        11.16105086605182    3.13020721805148    4.55440358642175
H         9.73299591262138    3.84106585501160    3.76505738832424
C        10.06521851688254    0.71671623660100    5.18518296396217
H         9.39005434275390   -0.02742936017149    5.59506462963736
H        10.85693427652881    0.92464800722471    5.90023383620761
H        10.50728338842619    0.30900414815179    4.27933230088171
C         8.27712415019773    1.77400739907067    7.16739522463909
H         7.69476405494454    2.30429394498596    7.91418350565172
H         9.15657434095485    1.34712249488426    7.64106511415003
H         7.65278460046001    0.98214607685133    6.75947047849696
C         9.53281869866443    3.87228567868816    6.63423973856987
H         9.66034912523149    4.67362157553107    5.91190238958053
H        10.50756963426710    3.48657685287873    6.92216565320466
H         9.04351641196187    4.27961704620476    7.51607177167521
B         7.18819962417684    2.58750812152706    4.34496299609832

