111
CSD_code = ONEPED | q = 1 | S = 0 | Stoichiometry = C56H46N3O2P2RuS(1+) | MND = 6
Ru       14.22597439669353    1.11775520986307    3.44592122435552
S        14.06540910564242    2.85723516563246    1.82261021110969
N        12.21063534860204    1.56081473684474    3.98224369787899
N        14.04302006012850    0.00360200599665    5.12782004047519
N        14.95360628992525    2.74555188382739    4.77569592633127
H        14.37767574743352    2.68862881446725    5.64581485015430
H        15.93953884705163    2.72737994496154    5.04041940908715
P        18.02682578867551    0.97100269733754    0.93140741585771
P        13.32694430695061   -1.37590977319259   -0.25657936255577
C        16.07526983159264    0.86237334638057    2.90522500701870
H        16.91439677110545    1.29010731073566    3.47800482129461
C        16.44600144297175    0.45507240651483    1.63216810543701
C        15.61592413520978   -0.20605813391697    0.71870916390708
H        16.02116590454726   -0.47207378828518   -0.25264466552420
C        14.29825659633034   -0.55974241897258    1.01939029702611
C        13.62268608455287   -0.24534022735412    2.18954468282846
H        12.62438522305950   -0.71447191168044    2.25545069703600
C        14.76984367328564    4.22945476185865    2.78318739380270
H        15.83726498317844    4.28435134533213    2.53730105471912
H        14.25891859213421    5.13305247807472    2.44792458445215
C        14.55772637845883    4.06396047986635    4.27268932038653
H        15.11181471124419    4.86694996562353    4.78743291946383
C        13.02063214860983    4.21441438378815    4.74032415545618
O        12.27465313659591    4.86910367546098    4.02867774973995
O        12.80538360846838    3.59155487045181    5.79555219394448
C        11.32175778257312    2.34328636806030    3.40388164301218
H        11.58361344177323    2.74442616058730    2.43281738852545
C        10.11096218325362    2.69826903336177    4.00403334349439
H         9.45188865062708    3.37740286399689    3.48900709599446
C         9.81370508407132    2.22592662285760    5.25762483686300
H         8.90661431019307    2.51386666763946    5.76724178015385
C        10.72849645544640    1.37068126840282    5.89322251259294
C        10.52764466554287    0.82982908685532    7.19302054786076
H         9.61630614600390    1.08455509615673    7.71285756622886
C        11.45373701848390    0.02743319197052    7.77446464972153
H        11.29699120241958   -0.37428339389715    8.76413482489787
C        12.66787251475188   -0.29588445242638    7.10707172717162
C        13.66499588588760   -1.11073888407069    7.66431449457864
H        13.52619170980978   -1.53330216605448    8.64745602339136
C        14.81000321049707   -1.35318562163379    6.93795080014958
H        15.59526558233478   -1.97843319531426    7.33226965570167
C        14.96328968136812   -0.77694488424002    5.67928694942859
H        15.85887467735632   -0.95418101155749    5.09473623845224
C        11.92292978554562    1.07160449037226    5.20583546594559
C        12.90287045256224    0.23834625836642    5.81893350284175
C        18.68132173510739    2.35155847793652    1.89013192084690
C        19.40588000153278    2.08310464631496    3.05047553003091
H        19.62899630789472    1.05892272639315    3.32091044642649
C        19.83587284460378    3.12993966824372    3.84463160800757
H        20.39739087917549    2.92685130923286    4.74397013003932
C        19.54273583812285    4.43790765271196    3.48773143552785
H        19.87690438283738    5.25241533637758    4.11176774116026
C        18.82338744919451    4.70282562615749    2.33316328883024
H        18.59646628310800    5.72172828159094    2.05872754946079
C        18.38726844460908    3.66266587168714    1.53073952649502
H        17.82377767891376    3.86451849359921    0.63084104626286
C        17.69877428514338    1.53232816383703   -0.75478728446670
C        16.53246361001984    2.26579193156358   -0.97814944378826
H        15.84142743973599    2.45838612861476   -0.16450612001174
C        16.25452586200514    2.72095364112527   -2.25392932574951
H        15.35608875481475    3.29269321666578   -2.42987682364686
C        17.12469449556431    2.44577861535221   -3.29858429729020
H        16.90369530748190    2.80580453446789   -4.29207780812957
C        18.27732211460850    1.71012400852954   -3.07280353945422
H        18.95197908404003    1.49511347260727   -3.88758852082998
C        18.57032119629053    1.25058008814808   -1.80054193457081
H        19.46724368119628    0.67419912677540   -1.62151897137648
C        19.29033320570630   -0.32186184304311    0.89097416998390
C        20.63159799190349    0.01961114370347    0.73077015255556
H        20.91649148613326    1.06018042267985    0.64971017111356
C        21.58738159292808   -0.97834548782607    0.68612183752600
H        22.62814998306217   -0.72016953356034    0.56421708756997
C        21.20962314867754   -2.30806633951099    0.80054419451431
H        21.95991977327235   -3.08289097034402    0.76792373611858
C        19.87515085424642   -2.64565777631786    0.96253482785222
H        19.58750279091097   -3.68172227797456    1.05653704680704
C        18.91086633518658   -1.65452640175429    1.00907967207420
H        17.86612479865174   -1.90010676843243    1.14566758944148
C        14.34325079392926   -1.85051409428453   -1.67314866966319
C        14.81917484331737   -0.81701637036749   -2.48043654356857
H        14.53050642030994    0.20394969575350   -2.26578772423479
C        15.64904557430824   -1.10825629944025   -3.54570245537084
H        16.02093931155690   -0.30990144905975   -4.16969622445895
C        15.99874146428555   -2.42423224640843   -3.81128498024748
H        16.64255243232271   -2.65088153253228   -4.64708859054135
C        15.51944344762725   -3.45029156837122   -3.01257494558349
H        15.78769580108643   -4.47320889276920   -3.22833471997304
C        14.69426892197094   -3.16903120546024   -1.93705509313139
H        14.31591783630521   -3.96613333636827   -1.31236855840423
C        12.07028192254669   -0.25320047137751   -0.90239994099610
C        11.34867470541315   -0.64465627313915   -2.03084711968289
H        11.56010040417752   -1.59546518374140   -2.50393552808792
C        10.37738999600161    0.19521978634272   -2.54098461246710
H         9.81271661979716   -0.10253656052097   -3.41144996062798
C        10.13270444247353    1.42073534846318   -1.93707766272375
H         9.37298438529172    2.07271363551634   -2.34019858261523
C        10.86585145936796    1.81401186598342   -0.82923144890198
H        10.68877931650074    2.77512482287223   -0.37231800178837
C        11.83928778246724    0.98035335405794   -0.30547139111673
H        12.43082408477241    1.29203240355044    0.54538592396290
C        12.53898251943636   -2.84344618477240    0.44347514228061
C        11.19454226611727   -3.13328104669365    0.24230536668077
H        10.57460614445156   -2.46343254836506   -0.33609598553736
C        10.65558892961723   -4.28096363348583    0.79806983919931
H         9.61220854536767   -4.51011996854752    0.64476847893740
C        11.44958486190288   -5.13165004057761    1.55015874879086
H        11.02352914924749   -6.02541827099638    1.97916716782506
C        12.78809000225899   -4.83490396335738    1.76116586522936
H        13.40155264880536   -5.49492760060363    2.35546350647570
C        13.33538934515817   -3.69100560716820    1.21248794147496
H        14.37385044350835   -3.43624448987560    1.38108218094161

