83
CSD_code = ONESOQ | q = 0 | S = 0 | Stoichiometry = C32H30B2N6O6RuS6 | MND = 6
Ru       -1.15129182074558   17.45788932431444    5.96045323499413
S         2.71604783218196   16.27028005980669    4.09580732602915
S         3.03440069736834   18.85187221422888    6.51413796752531
S        -3.91069922533076   18.22298361701167    2.55744792770858
S        -3.41165062096581   21.05723947092138    4.61489429323780
S        -2.70530458034309   13.78002326101281    7.94249461915554
S        -2.61455238644893   16.59522453214020   10.07190996094923
B        -1.41735189003890   15.09313995976951    4.05028357111475
B        -0.88954180615981   19.82250374128818    7.87569951717804
N         0.18403243216511   16.77193013568755    4.70966419321744
N         0.47898908391641   18.21604720627618    6.71715838623633
N        -2.43077987707068   17.22583291021325    4.50704282368989
N        -1.71119890617299   19.30694476836893    5.66982489995048
N        -1.50721386709430   15.59091915999884    6.40422730192421
N        -1.90224790283502   17.64554232919148    7.75081549932062
O        -0.08406463475467   15.78373343047979    3.83533003253433
O         0.46660944147708   19.18624951346781    7.65028133567674
O        -2.53247906058156   16.08495750618930    3.80054661833048
O        -1.43975432085207   20.29238741101718    6.54620338962016
O        -1.49616164273399   14.61401488849640    5.48072687126166
O        -1.83032324190743   18.78961367254211    8.45549919668148
C         1.43299843078599   17.06810872634193    4.97683897752321
C         1.58442313882355   17.99665405671092    6.04720260727379
C         4.26171130264730   18.29856990936791    5.35602364820688
C         5.47140934789157   18.98493154481247    5.46281702483984
H         5.54145399948235   19.77670127756872    6.19309509498120
C         6.55050098757047   18.66343788585602    4.66734427533964
H         7.47611781043553   19.20726031938460    4.77143168297525
C         6.43420662256872   17.64001429004079    3.73788662467423
H         7.26839902105421   17.37390743927089    3.10815312916556
C         5.23931996207684   16.96261137479979    3.61828645826596
H         5.12653848038642   16.16665422064247    2.89802552671595
C         4.14320867267258   17.27870939211101    4.42066495012683
C        -2.95037579124578   18.32366582837762    4.01337408505930
C        -2.63577002504476   19.49552243534701    4.75952008813633
C        -4.08561517641095   21.02840098856750    2.96976244914114
C        -4.46512241286632   22.28424143437563    2.49755904828932
H        -4.31600578031012   23.13543574448208    3.14416630934025
C        -5.01972606165803   22.43985969146565    1.24453769303322
H        -5.30948504237430   23.42106745924150    0.90311787871780
C        -5.19522276310490   21.33017677087536    0.43074078041936
H        -5.62246271680999   21.43463789665004   -0.55400862204820
C        -4.81817155906278   20.08493919968002    0.88760259386764
H        -4.94765819273584   19.20882170234788    0.27064068288391
C        -4.26730341667555   19.91638086215685    2.15768343886401
C        -2.07497341690533   15.36830322580585    7.56467579840441
C        -2.17969262070010   16.53028763280950    8.38119259934254
C        -2.69292870861320   14.88764289737508   10.55649236742939
C        -2.73929915937592   14.69926691754913   11.93728296689892
H        -2.69223476151569   15.57213288369979   12.57040424613584
C        -2.84943105797316   13.43790261699522   12.48371129651466
H        -2.88624061859630   13.31781157892591   13.55494421174461
C        -2.90983908273153   12.33249534048563   11.64791484613370
H        -2.99619443595927   11.33885910785424   12.05851607591491
C        -2.85230058940580   12.50834830599119   10.28127435665400
H        -2.89229025273380   11.66099487125889    9.61404981067711
C        -2.74576002697915   13.77993906226836    9.72016830420475
C        -1.55719888782954   13.84262072992663    3.04637231970268
H        -1.41430386596162   14.18351806891721    2.02133973919054
H        -0.76804448649563   13.12128665258793    3.25680055250045
C        -2.91631132440799   13.14907512126711    3.16124989281665
H        -3.04635188347119   12.79762116698391    4.18587397943126
H        -3.70072206381437   13.87942908106296    2.95808713545335
C        -3.04785939731495   11.97375385113229    2.19626343845813
H        -2.90550609051591   12.33101086244603    1.17406175268926
H        -2.25977593766839   11.24719501189056    2.40558053515779
C        -4.40727752934721   11.29447652012826    2.31072401258498
H        -4.48150158240211   10.46012376424981    1.61641639538906
H        -5.20432695363762   12.00008791613923    2.08674562703347
H        -4.55994460266343   10.91708162446177    3.31948051756677
C        -0.75406225261615   21.06676578990452    8.88799772930480
H        -0.11677287672931   21.82956665445946    8.44191541059822
H        -1.73537099831687   21.51606843309702    9.03736411779371
C        -0.17640443071515   20.65791854641795   10.24439864701413
H        -0.82702809213930   19.90409168393393   10.69022611234780
H         0.80201042278520   20.20199306404207   10.08602656576895
C        -0.04164796689452   21.84432155974046   11.19519322950174
H        -1.02380585091186   22.29808970111437   11.34438647394878
H         0.60524148834096   22.59769447147856   10.74046297456974
C         0.53485171758175   21.42809035191667   12.54315310385698
H         0.62265693935837   22.28567965796441   13.20681285061827
H         1.52232631345812   20.98979830043433   12.41512519427143
H        -0.10681761736026   20.68961741038501   13.01879942024209

