57
CSD_code = ONEZOY | q = 0 | S = 0 | Stoichiometry = C30H19ClN3O3Re | MND = 6
Re        7.61091267228973    8.32227332345987   17.67616951910332
N         9.03945474228885    6.95571330068524   18.47461051099149
N         8.99482589518941    7.91534372044066   15.98772395265068
N         7.67944514944532   10.10319042790774   13.59481515097609
O         6.07052486476810   10.66351590056906   16.36413852731861
O         6.37736094709511    9.06068365119797   20.40773291393499
O         5.57664082062044    6.06858897634090   17.09891810391528
Cl        9.34006001768303    9.89192145865480   18.11020616761047
C         6.59012629022645    9.75427187449585   16.82610613765651
C         6.77514807345824    8.76759074622332   19.37500854993857
C         6.32660190688162    6.92014761562249   17.30173431259739
C         8.96836451297799    6.38162316528112   19.67305657536755
H         8.04413735840515    6.52342522508244   20.21860145498062
C         9.99728612931539    5.63900148290876   20.21983488592889
H         9.88908234966685    5.20626113874518   21.20101310444947
C        11.15733101408097    5.46763171711980   19.47898952181244
H        11.98241085499978    4.88893809560899   19.86510990316027
C        11.23503319980827    6.05256431561373   18.23055120795919
H        12.11917774508640    5.91840337046383   17.62946402208087
C        10.16449640701765    6.80923423330709   17.75418201761878
C        10.18101035444301    7.46416413186009   16.43764910658350
C        11.35503555015057    7.62425552059044   15.71276670136332
H        12.29808273369017    7.30994929022845   16.12844338012412
C        11.33392759740857    8.27900883468261   14.48377675338042
C        10.09306584092030    8.69404298492363   14.01262139976769
H         9.98615666430555    9.18537936437293   13.05948515833625
C         8.95429298230308    8.48683700209735   14.78055555576834
C         7.66077827018052    8.93244372564883   14.22468410467770
C         6.51230238596437    8.14632638799941   14.31399601016345
H         6.55216733664578    7.16751518796289   14.76517728083069
C         5.33337899970689    8.64154834096311   13.78231980080900
H         4.42519097916486    8.06058856533896   13.84035995219858
C         5.34185471671281    9.89024926691725   13.18267483237802
H         4.44101082534852   10.32158978022317   12.77608798270550
C         6.54956895481046   10.56963151388826   13.10179723747594
H         6.61987573087242   11.53476812682959   12.61761783696049
C        12.56302172100848    8.52363465670098   13.72574058155898
C        13.58306109502177    7.57472113409548   13.68508136222446
H        13.46152204929631    6.63276578247002   14.20088620745407
C        14.73502241384864    7.81145915977023   12.96366449551640
H        15.51837042314055    7.06784609896978   12.94763659953274
C        14.91232115662061    9.01033370787806   12.27553858474791
C        13.89443945345716    9.96141845933247   12.32495344496010
H        14.00888768998073   10.89090033184359   11.78714349848958
C        12.73395643083962    9.71975828970664   13.03027851721594
H        11.96090047874645   10.47263655901073   13.06783747513903
C        16.14340315116656    9.26524916726170   11.51502424542057
C        16.71568185031907    8.26319144462496   10.73458543303328
H        16.23713381904061    7.29637689581009   10.67383752676579
C        17.87131972978787    8.50582959424949   10.01593383426372
H        18.30017855025388    7.72214434549051    9.40845692540588
C        18.47787354696989    9.74956449270841   10.07173989299501
H        19.38216625403565    9.93728102695153    9.51222179803768
C        17.91934583062976   10.75161517125999   10.84757631077243
H        18.39076429529491   11.72220558523870   10.89780235189481
C        16.75931525574947   10.51395053337055   11.56074753240824
H        16.33729393085875   11.29379579900066   12.17803374858267

