63
CSD_code = ONEZAK | q = 0 | S = 0 | Stoichiometry = C32H22Br2Cl2HgN4 | MND = 4
C        -1.24045632898205    4.58063625504936    9.39341489739695
H        -0.81073940164630    5.52507858898074    9.68949824807813
C        -2.22974590225304    3.96034913780728   10.13027237564884
H        -2.60813486033290    4.39985277270383   11.03954994417877
C        -2.73979289126251    2.75026619518183    9.68498574644674
H        -3.51343068503030    2.23589544612997   10.23919326694152
C        -1.35749760208131    2.74314503271385    7.86829778816330
H        -1.02725054336555    2.22645535038315    6.97573783995348
C        -0.78106491317058    3.96029633022461    8.22807984579900
C         0.25878574269913    4.55092498452171    7.40582739672717
H         0.55335697076576    3.98090079177214    6.51699818543222
C         1.71724774087357    6.32230978346204    6.98075943806383
C         1.60699677988465    6.43692685604130    5.60730270129673
H         0.79152037168068    5.94971752294592    5.09321986579934
C         2.50375644021754    7.21991151962202    4.88068499236186
H         2.39306454930483    7.30599413285956    3.81087397618645
C         3.52491930365235    7.87411842830482    5.52038095484070
C         3.68878818925904    7.79394599562547    6.92479254274529
C         4.72704766118474    8.44880398799112    7.61720328898067
H         5.43661023579488    9.03595979214365    7.05491513047691
C         4.83963550055191    8.34211612804043    8.97602372695196
H         5.64024572406582    8.84871363139988    9.49389297159012
C         3.91878561783226    7.57871192902402    9.70561985812594
H         4.01673475753041    7.50833229316766   10.77867483897136
C         2.90485449185894    6.92453996225382    9.06104191005469
H         2.18987255736934    6.32821130047407    9.60703948666973
C         2.76011792059631    7.01601605574527    7.66428221349279
N        -2.31582009776090    2.15355741100528    8.57239398118917
N         0.79533502509976    5.65061282550711    7.74162215218813
Hg       -3.55767566024696    0.18503388206032    7.59735099471899
Br       -2.06424437894466   -0.22348283333416    5.70663627817205
Cl        4.62185301456794    8.82183191934908    4.58118363307732
C        -5.87500037800133    4.58046174840493    5.80089245320135
H        -6.30471162016151    5.52488950359615    5.50475638075050
C        -4.88573579327963    3.96011184121251    5.06405344215284
H        -4.50736275537820    4.39955327206602    4.15474042710794
C        -4.37568294897208    2.75005690975482    5.50940789607823
H        -3.60205973317830    2.23564120426048    4.95522353807100
C        -5.75792755237500    2.74307643192520    7.32613291695115
H        -6.08817825474504    2.22644152028490    8.21872007603585
C        -6.33436881248815    3.96020416749279    6.96627961283083
C        -7.37418261930649    4.55087254965236    7.78854589155581
H        -7.66878234361359    3.98082816731174    8.67735235747489
C        -8.83252066255674    6.32231966958630    8.21373574693936
C        -8.72217743247561    6.43693332927449    9.58718405050148
H        -7.90668373052860    5.94969719274264   10.10121493465360
C        -9.61886894103044    7.21994239188731   10.31385917101057
H        -9.50810162485156    7.30602668511337   11.38366256009879
C       -10.64005805102621    7.87417269928956    9.67422972484913
C       -10.80404077326060    7.79397434052175    8.26983307792441
C       -11.84235531736424    8.44881962259474    7.57749341548039
H       -12.55186181553732    9.03599994703502    8.13982673345728
C       -11.95508021455291    8.34206536280040    6.21868834775414
H       -12.75575024754307    8.84862766215723    5.70087757400056
C       -11.03430938363689    7.57861803949216    5.48903705886039
H       -11.13237472203928    7.50817093715687    4.41599809369814
C       -10.02030730186715    6.92448446810857    6.13354314254873
H        -9.30537463091337    6.32814015811014    5.58749985900290
C        -9.87543980605082    7.01601814948998    7.53028477507477
N        -4.79962067745386    2.15343714420792    6.62206240048228
N        -7.91065925895296    5.65061330142247    7.45281598433856
Br       -5.05130570327485   -0.22322032139140    9.48810335878994
Cl      -11.73689222334139    8.82193849538413   10.61349452750663

