55
CSD_code = ONIBEU | q = 0 | S = 0 | Stoichiometry = C26H20ClN4O3Re | MND = 6
C         3.47320914571411    8.34988790316781    9.50885433255724
C         2.06046236652710   10.68940524617386    9.64347795669517
C         4.85680377112512   10.88527729412257    9.42594534793850
C         3.08060053520796   12.68017760958127   11.99446792111086
H         2.63271619636005   12.92574017792557   11.03994957389291
C         3.00495231739144   13.56686980402842   13.05117798929072
H         2.48668676747549   14.50464546095188   12.93411189256733
C         3.60767291166966   13.21929552048469   14.25101759258908
H         3.57767479739595   13.88444282365981   15.10053931745392
C         4.25213518641476   12.00132410895182   14.33697490104043
H         4.74170584036384   11.71841899520845   15.25410964128656
C         4.26706882020492   11.14629422217692   13.23475113484796
C         4.92748131761522    9.83216237619581   13.25812927127233
C         5.34838892222326    9.24510088747332   14.44256829020347
H         5.15376712608796    9.72898683040513   15.38508332637491
C         5.94413382431764    7.98296156609252   14.43428930243194
C         6.12952288733319    7.39444832664550   13.18447689542737
H         6.60406527024908    6.43284154505520   13.07932046237791
C         5.69825753265941    8.04202173008191   12.03646267816869
C         5.93966710553641    7.37457693678794   10.74068003420077
C         6.43258119388598    8.06954603752776    9.63635510333638
H         6.68469972337110    9.11520906031514    9.71549975275644
C         6.61650728728245    7.37706634717838    8.45140033767532
H         6.99073564864405    7.88705227129662    7.57628369271396
C         6.30786160943534    6.02719641890769    8.40994045089220
H         6.41449509929188    5.45651485204812    7.50107364028596
C         5.87126019650564    5.41972043657394    9.57887845507397
H         5.64467914511961    4.36204022871649    9.61126169661412
C         6.34619624622495    7.31650207047795   15.66557364930386
C         6.79795830981623    8.03570484550426   16.77340656059328
H         6.88903746136981    9.11091599043008   16.71402747149485
C         7.18317660117758    7.40373687067309   17.93255045783749
H         7.55567637690767    8.00399130645947   18.74636179303974
C         7.11805231392877    6.00552651773185   18.05523212082999
C         6.65465093463458    5.28594177323828   16.94051620867722
H         6.56024249343854    4.21371103728832   16.98743789566046
C         6.29016235322402    5.92567802572113   15.77974623090111
H         5.91415351697471    5.33975922052074   14.95454623774297
C         7.75984064211851    6.12513817875130   20.40733728397663
H         8.72695332264068    6.63835963901561   20.35818688893895
H         7.77384189293888    5.44998800996229   21.25983468790887
H         6.97823075119753    6.86788988445068   20.58067918428647
C         7.60720238164842    3.93815188673694   19.25757957488386
H         6.62595760116930    3.45132242603306   19.28003135477120
H         8.15270332209927    3.65227163433114   20.15416245527229
H         8.16228477298908    3.56663100983927   18.39409956848654
N         3.69000307972855   11.49983957131917   12.07354028044793
N         5.07965650427321    9.22728955705065   12.06364768009568
N         5.70386181319182    6.06656290385239   10.71519615692929
N         7.49132373629860    5.37452507471327   19.20596876349689
O         3.31592534805589    7.36374182533851    8.94849158113290
O         1.10178822714800   11.10631183412429    9.17500125328354
O         5.59574541091120   11.45687661227514    8.74965369149093
Cl        2.16183288096504    8.95699768699188   12.17830041367543
Re        3.60244915948744    9.97300958943009   10.58680956373663

