65
CSD_code = ONINIK | q = 0 | S = 0 | Stoichiometry = C32H22Br2Cl2HgN4O2 | MND = 4
C        -2.16878396122319   -1.28231854766365   10.94018518885467
H        -1.99499038425057   -1.32245960392764   12.00517765461105
C        -3.42232217309423   -1.02865275712941   10.41172083156499
H        -4.27380183442464   -0.86474709538371   11.05271572015553
C        -3.56889819481850   -0.96856142248160    9.03474262434521
H        -4.52554972455246   -0.74303013699634    8.58087626788655
C        -1.36064167916304   -1.46872935855401    8.70326209467302
H        -0.58455407174894   -1.69533548026624    7.98267814841039
C        -1.10252193103537   -1.48409331190595   10.06697347534919
C         0.27252694993131   -1.73650538673144   10.61562348157496
C         2.63018398833353   -1.19761339382186   10.04014196343765
C         3.20260292115719   -1.95730941543239   11.03467783020872
H         2.58118247039014   -2.54189122911020   11.69101606112972
C         4.58746912942763   -1.97884542821668   11.20898975715037
H         5.01360057502568   -2.58436153411279   11.99368352516980
C         5.39226720129142   -1.23747264107269   10.39051348163012
C         4.86341124393390   -0.43532026393355    9.35275680690517
C         5.68020162112743    0.33893341587834    8.50497841315301
H         6.74935496871316    0.32133787656569    8.65262154876345
C         5.14277388397665    1.10425215168546    7.50898277417026
H         5.78263264558828    1.69329672865871    6.86988357906370
C         3.75731331987298    1.12142405418673    7.31666420223654
H         3.32968547798155    1.72069913207721    6.52756819138509
C         2.93501804018886    0.38202006506511    8.12255375211763
H         1.87458302151123    0.43096473067793    7.92239064409211
C         3.44951059260438   -0.41643195891912    9.16715429358631
N        -2.55936016417707   -1.19181356143903    8.19468070212204
N         1.24610147378425   -1.17454921098861    9.85067728730197
H         0.94003398737608   -0.62247133779810    9.06054168948810
O         0.43373503573272   -2.36111259340934   11.64181770046652
Br        7.27493318127354   -1.31364762415945   10.68632797410331
Hg       -2.44578847569257   -0.24557172988650    5.95617375917551
Cl       -0.32828690792841    0.55393553261734    6.30406398222306
C        -2.72564001704848   -1.28264859110749    0.97378745886838
H        -2.90016423009373   -1.32136427208771   -0.09114767668130
C        -1.47152502726834   -1.03080479523132    1.50168905446411
H        -0.62027410211281   -0.86703035959522    0.86034446726668
C        -1.32401320202255   -0.97253769057639    2.87863978981711
H        -0.36684504726382   -0.74846376378112    3.33216150453740
C        -3.53234882359752   -1.47178326061685    3.21096040043606
H        -4.30814078589563   -1.69867842590177    3.93178410079114
C        -3.79141935868517   -1.48505968428958    1.84743424382497
C        -5.16688902047597   -1.73596229335941    1.29908375303009
C        -7.52413645569695   -1.19759565338729    1.87630867972496
C        -8.09693563204661   -1.95631377832136    0.88123470779758
H        -7.47579857370314   -2.54050497169026    0.22428388316774
C        -9.48183523424519   -1.97742360608609    0.70715033896623
H        -9.90821020399153   -2.58215571750562   -0.07801671119846
C       -10.28633975612488   -1.23667254102182    1.52646590313677
C        -9.75712287756555   -0.43556935952833    2.56484454978267
C       -10.57362991584309    0.33795296683061    3.41356110222601
H       -11.64282871930150    0.32053807106385    3.26620827677810
C       -10.03587903644484    1.10231963343361    4.41010826457444
H       -10.67552919558039    1.69080570458318    5.04993467990030
C        -8.65035172480130    1.11932440386948    4.60196415311369
H        -8.22245921366130    1.71797688493846    5.39139150088838
C        -7.82832211851944    0.38059332999064    3.79518110051183
H        -6.76781103420159    0.42943728553684    3.99492752909672
C        -8.34316663074449   -0.41700301887002    2.75010452921214
N        -2.33315723620867   -1.19602420817547    3.71912135124404
N        -6.13999531216062   -1.17520759774781    2.06556919644457
H        -5.83351027108531   -0.62447570781522    2.85650047667490
O        -5.32874386656016   -2.35834942971998    0.27169978436094
Br      -12.16908171082246   -1.31217311276516    1.23094133443491
Cl       -4.56281789333820    0.55463489488896    5.60636286631993

