65
CSD_code = ONINUW | q = 0 | S = 0 | Stoichiometry = C32H22Cl4HgN4O2 | MND = 4
C        -0.87501659598005    5.03205600442763   21.70829359836266
C        -5.16352335294414    5.66363383777399   22.68436996564389
H        -4.52082734830549    6.27879645569051   23.29056087114925
C        -4.61680616614980    4.81946278440252   21.74529331599145
C        -6.87193429402424    4.06994866603852   21.13015022526502
N        -3.23453453686205    4.74695921225982   21.54862746514762
H        -2.95082011282966    4.10960602033339   20.81695064258393
Cl       -9.08592676256480    5.07259513641622   22.36719253108724
O        -2.37636440873159    6.10180526724935   23.19216753101200
C        -5.83009315089495    2.33883558521058   19.20626865092017
H        -5.42698972130826    1.67064808395178   18.46058633380160
C        -4.97907882194996    3.10896786224969   19.95141260284401
H        -3.92198653144176    3.01086032417608   19.74959298857991
C        -5.46189648737992    3.99718449665745   20.93764305798544
C        -7.72014592704566    3.26257768932058   20.34529423125072
H        -8.78533974178752    3.32895030180592   20.50362419060936
C        -2.24077930199474    5.36663954914725   22.23678805541757
C        -0.62807732322763    4.81996813830625   20.35880532972302
H        -1.40812561100532    4.93786729779514   19.61697460331818
C         1.58488064679405    4.37730011412081   20.73899241254278
H         2.53813324476745    4.09304706696326   20.31205864825476
C        -7.21348839002588    2.41260603504787   19.40338297610247
H        -7.87411466904663    1.79879470231260   18.80996423551628
Hg        0.47241287685105    3.30594714310631   17.76021673609962
N         0.56756596042475    4.47657217339533   19.88496715193800
C         1.44962378377988    4.63173888772812   22.09460600252165
H         2.30684459689337    4.56194634478460   22.74502325387570
C        -6.54625306436154    5.73353716743636   22.86704936283727
H        -6.95064899566861    6.40394092267167   23.60867759748444
C        -7.37918306381046    4.95682190516979   22.11015321336414
C         0.20003795358274    4.95754520634657   22.59134325283920
H         0.03425873687913    5.15156776638937   23.64061859348770
Cl       -1.67974121279751    2.59156886273856   18.10670250067302
C         1.82482859362618    5.02961177888321   13.81294542523473
C         6.11390679534199    5.66620775917096   12.84455694559786
H         5.47145918161267    6.28309867383020   12.23986575917928
C         5.56689146615521    4.81945417144270   13.78115613323749
C         7.82198706431787    4.06945380863912   14.39586205051752
N         4.18436852861887    4.74528068157210   13.97584591838618
H         3.89994714843371    4.10571906570587   14.70536494655043
Cl       10.03599846490586    5.07171419098143   13.15854169243442
O         3.32788849416707    6.10425629521048   12.33479725816998
C         6.78019700889640    2.33791920667562   16.31935461407409
H         6.37720478328861    1.66975733954815   17.06511592101688
C         5.92912675807691    3.10799112710230   15.57419104564188
H         4.87203848857917    3.01011776245419   15.77616108331356
C         6.41191224033487    3.99647393439871   14.58817552916049
C         8.67022173721661    3.26185843374525   15.18046050841967
H         9.73542217926498    3.32845379476846   15.02228836813422
C         3.19134530760630    5.36635771822029   13.28773711559261
C         1.57556246632553    4.81704050616392   15.16191115272873
H         2.35456137582385    4.93422949479188   15.90493591748974
C        -0.63707847495689    4.37621533348100   14.77795432082935
H        -1.59134924744368    4.09279145106861   15.20312321325109
C         8.16359471260623    2.41179735196338   16.12230032013009
H         8.82428450214795    1.79823169067999   16.71589120218831
N         0.37889839079640    4.47434459857217   15.63369579346722
C        -0.49924570528267    4.63022078813263   13.42251113127655
H        -1.35534319375437    4.56076173887589   12.77056662946399
C         7.49665413885199    5.73633670063387   12.66210425271204
H         7.90113101726680    6.40843532047096   11.92204874447095
C         8.32937043754267    4.95733721652483   13.41684819615903
C         0.75138080114880    4.95531267581429   12.92791767111400
H         0.91901090413478    5.14917569493619   11.87890943341221
Cl        2.62646142652685    2.59434668414824   17.41880957842222

