48
CSD_code = ONIQIM | q = 0 | S = 0 | Stoichiometry = C21H17N5O4Pt | MND = 4
Pt        1.92718225640978    1.43730310725885    7.34060754752610
O         2.33610928003284   -0.58295120306384   10.81190569305122
O        -1.68223363827993    3.29861596671956    7.99257874742816
O        -1.46426264557661    1.18011760423667   11.93445419650416
O        -2.82118757239952   -0.44642358745977   12.25210290608947
N         3.48596382805716    0.15106242649809    7.52853719832346
N         1.48602447053769    0.68985609246322    9.10062286773916
N         0.31214696821126    2.54981673202548    7.24018545472512
N         2.28194203834853    2.39433145651163    5.57597070587975
N        -2.09300984203547    0.21978884766282   11.54464929403613
C         4.39358070972957   -0.25777615354808    6.63845913410140
H         4.28611260110388    0.10180779837853    5.62369346386478
C         5.42512799121508   -1.12265279229975    6.95415840698975
H         6.13154468110305   -1.41189282098477    6.19214935856573
C         5.53290520239719   -1.60400003344178    8.25192621064063
H         6.33983557809586   -2.26262190850594    8.53308682261268
C         4.55837130754216   -1.23787118280793    9.16208735617100
H         4.53661593600202   -1.60358390531944   10.17692350298969
C         3.54848977605468   -0.37218811372013    8.76869920846493
C         2.39486805140566   -0.08359460194876    9.69526048692839
C         0.26637225976428    1.00485583593983    9.81341839338866
H         0.45665363801769    0.83298686710690   10.88196610692034
C        -0.09156028351861    2.49085254596689    9.61708849020624
H        -0.87385403557335    2.77160970307158   10.32095602884477
H         0.80086811482689    3.08781952462504    9.82374541012443
C        -0.58084904406249    2.80735121326775    8.20447836793902
C        -0.06059052992219    2.87458716044151    5.87565906561627
H        -0.62751319648613    3.81507020873080    5.86117555702504
H        -0.72517713648349    2.10194099112167    5.45424570461000
C         1.18599182404582    2.98260585111914    5.05871482988771
C         1.23265370234511    3.68652712354945    3.86226130422001
H         0.32748184108799    4.12849632402340    3.47711265716076
C         2.43489101364341    3.82348930165245    3.19307558563978
H         2.49096320807194    4.36295454648364    2.26060344526712
C         3.57372572163263    3.27793340761967    3.77019334949191
H         4.54233478748609    3.39456726166708    3.31158273420369
C         3.45069699814324    2.57962837493272    4.95459200738241
H         4.32926862999007    2.17250460744200    5.43586626477623
C        -0.89157282585642    0.14623016758431    9.35362393240584
C        -0.89957267479568   -0.35366988578837    8.05357967801177
H        -0.04670720211076   -0.14723734470963    7.40763863233456
C        -1.95297901700099   -1.09759704976592    7.56017866109936
H        -1.92821535247501   -1.45240262701888    6.54040182084455
C        -3.04139547024639   -1.38740518868989    8.36905812506703
H        -3.87212663355773   -1.96073342582840    7.98858346641748
C        -3.04713159883356   -0.93639313253939    9.67051624518896
H        -3.87070107088922   -1.15617413531043   10.33306901156282
C        -1.98818264521415   -0.17484195535690   10.16205656172902

