34
CSD_code = ONIWAL | q = 0 | S = 0 | Stoichiometry = C13H16N2OPtS | MND = 4
Pt       10.32456680575436    6.52904478057771    2.32039413986009
S        10.83912655539758    4.85124482031646    4.05378576976441
C        12.23303293899506    7.24978728462370    2.31600833650798
H        12.77575926205784    6.88262653628267    1.43627219838554
H        12.81663750089604    6.94953803764415    3.19341975126812
H        12.27142168024268    8.34242049543780    2.28428438824937
N         8.27128415354960    6.01114152341859    2.28973316126714
C         7.66041182770827    5.15648934140090    3.09587353691892
H         8.29571302834166    4.51297966492704    3.69068252562105
C         6.28368695753865    5.05374400815952    3.19351343098018
H         5.83814895765005    4.33521280243387    3.86332684092652
C         5.51040016034004    5.89728311340890    2.41245103369608
H         4.43233423129901    5.86252157582463    2.46059054929957
C         6.13817840568921    6.78876561181052    1.56284731023423
H         5.56736336789051    7.45169584945847    0.93474023394375
C         7.53331223075721    6.82745842076562    1.50719552122124
C         8.32177439308308    7.70609905230020    0.64288767347624
C         9.71876352273964    7.73738569380321    0.84886667204976
C        10.48707823663042    8.52669387049017   -0.00409703019820
H        11.55773648855341    8.57465854748203    0.10295559678238
C         9.87042327546390    9.26174522183278   -1.00442392793924
H        10.44384723527318    9.88238537627229   -1.67585844238729
C         8.50780697670855    9.20607952984584   -1.14765673708771
H         7.96499780548369    9.75365698505154   -1.90272752533322
N         7.73215037609157    8.44327470903446   -0.34870474359040
O         6.48587457360816    8.43818960281966   -0.56236635854460
C        11.32528635193484    5.80388031152026    5.52139507827633
H        11.62122949090393    5.11040534232647    6.30482013161364
H        10.45556780332929    6.37254905363288    5.83726197380753
H        12.13886089913503    6.48138083146913    5.28031631847545
C        12.41854657737523    4.04474790634560    3.67180798598938
H        13.19663072704946    4.78462644403880    3.51447235389663
H        12.26818471049470    3.47022076509692    2.76316706370737
H        12.67626249203391    3.38186689014793    4.49416518886158

