62
CSD_code = ONIXUF | q = 0 | S = 0 | Stoichiometry = C28H29Cl2NORu | MND = 9
Ru       -0.01837514403471    4.59643559364272    5.24378942575127
Cl        0.21016429711549    6.74106817782178    6.16069946071547
Cl        2.28028681315870    4.69117671098197    4.78301670659147
N         0.50490118089769    3.92317593310054    7.04234829476601
O         1.51457998494824    1.08082775984630   10.95450252971498
C         1.70129228343899    2.49119270215827   10.94170914317828
C         1.25576104392882    3.02009035000570    9.58333349849965
C         0.25775525904013    3.97291673730291    9.41684170408279
C        -0.08193081113695    4.39536788191962    8.14595794919156
C         1.44341245633319    2.98173835441464    7.18897430567052
C         1.84339310677342    2.51671676682376    8.42382993139267
C         3.16537269027140    2.83469627687570   11.19477136459155
C         3.80756604053406    3.88252889191727   10.54782242583124
C         5.13285194576831    4.16419458085861   10.83265584826330
C         5.82471121433682    3.40825936783894   11.76308432724872
C         5.18519572225285    2.36793905362556   12.41592089725877
C         3.86152930511331    2.08471858686331   12.13480385231931
C         0.86425336124959    3.07793034442828   12.06879529722657
C        -0.16047109302026    2.33545261682682   12.63688158145740
C        -0.92164501708131    2.86727765847940   13.66325095660340
C        -0.66976457731728    4.14651980616487   14.12627021653065
C         0.34907382582081    4.89315764816526   13.55801364803566
C         1.11439236035944    4.36335608783484   12.53512195975563
C        -2.07089788776233    5.27378545734309    4.38308997857048
C        -2.27137858140015    4.15338396305868    5.20860020671504
C        -1.53657203519140    2.96104237309880    4.98639097973429
C        -0.63149109601145    2.83490698825073    3.90990463177878
C        -0.43022629575518    3.97871755903338    3.09393675762455
C        -1.13547805441534    5.17206367104156    3.31745984031007
C        -2.81524276987086    6.54898672422785    4.61377934956730
C        -0.00243067184561    1.49791072879762    3.59685714370370
C        -0.90797072229344    0.74748029670100    2.61180396078492
C         1.41677858579117    1.62554390806388    3.04243863667339
H        -1.75031955849820    2.09029121608806    5.60127200902548
H        -0.24859679352891    4.39795291802353   10.26824703502622
H         2.63074140495078    1.77957383799699    8.47099529603907
H        -0.34977284895322    1.33807598322842   12.27408840164692
H         1.90816374744184    2.61721430434958    6.28105518915324
H         0.04049782717257    0.92189839030470    4.52986218073312
H        -1.01029066575422    6.00919575746040    2.63871702657154
H         3.35298058447285    1.27989603853157   12.64600692137638
H         0.23868555104165    3.91387690367928    2.24350799173754
H        -0.48318046662763   -0.22694761412048    2.38380964127322
H        -3.02508160576431    4.18368547092893    5.98695034458964
H         1.90882455239853    4.95082228106205   12.09913726057508
H        -0.83427113649898    5.16221950163932    8.00352976686994
H         5.71598389451425    1.77749964663042   13.14799306478489
H        -1.26344027511905    4.56150534497847   14.92731333555312
H         1.91756960561682    0.66138309812293    3.08304453312859
H        -1.00429520512234    1.30798537741007    1.68404270776664
H        -2.17011695080237    7.23009223276921    5.17695844460033
H         1.99265487745687    2.34683247605922    3.62051349332669
H        -1.90186924203607    0.60322364258595    3.03159743240836
H        -1.71445348888153    2.27857104758736   14.10094151786603
H         1.40233547691902    1.95045078422814    2.00483091033495
H         3.28040247046855    4.48225985071239    9.82017359805408
H         6.85845749984873    3.63110797051995   11.98114920587571
H        -3.72031686372899    6.37841051480276    5.19222055831222
H         5.62415045999809    4.97894353341042   10.32230986419372
H         0.55130203451446    5.89251834186721   13.91370729154241
H        -3.06982792375178    7.02849583282267    3.67083322349519
H         2.19328631825901    0.67600575878781   10.40403494408517

