105
CSD_code = ONIYAM | q = 1 | S = 0 | Stoichiometry = C38H60IrN3O2P(1+) | MND = 6
Ir        2.18296060529764    4.69306836468850    1.93608473609570
H         0.66324356645927    4.63222249491511    2.06668462721214
H         2.13531830400199    3.50505641377072    0.99294767893158
P         2.22557948819809    2.95166976206232    3.57785583737409
O         1.65274847725324    7.85251369663368   -0.92063403630103
O         1.80337304314917    8.68274182767960    3.66556662477330
N         2.27195741323381    6.57938013901472    3.12529189368583
N         1.94166616464814    5.99912265430452    0.26559918349378
N         4.10353853749195    4.95168939905736    1.63076642587397
C         2.74408079018150    6.71947511790415    4.49992354647202
H         2.26823313940694    5.95441702052624    5.11442181640405
C         4.26766498881658    6.51581882957838    4.58586988843929
H         4.46449964575489    5.54296465477184    4.12139614447788
C         4.71373321281709    6.46671046752230    6.04471644106434
H         4.52957683482171    7.41727297624903    6.53920736609119
H         5.77903497571149    6.25770482508921    6.10294354648821
H         4.18305891957730    5.69113289721992    6.59240090071842
C         5.05002770290859    7.57476097647007    3.81451219646842
H         4.98568599600360    8.54888682381792    4.29275595752545
H         4.67547759081370    7.67428759501960    2.79709308003578
H         6.10098492574703    7.29845163427153    3.77072144966940
C         2.25723708553317    8.12730802346653    4.89182543051953
H         1.41457621001344    8.10476075632882    5.58956848088855
H         3.04060271483571    8.76957433843384    5.29435855399309
C         1.82213885015707    7.71152728315453    2.75227432782788
C         1.27418375836658    8.12018139052610    1.42010834525412
C         1.68114004300434    9.59091270537510    1.16159168212825
H         1.39191531975572    9.85171859585051    0.14214976797362
H         1.12172672937794   10.21703346511983    1.85658272965934
C         3.15319755894165    9.85075115289035    1.35749782638840
C         3.58119348441076   10.64834330047865    2.41280893631356
H         2.85054293663554   11.06996896505532    3.08736886601403
C         4.92578609857321   10.91420685593079    2.60415685744993
H         5.23764312706504   11.54147091122654    3.42581192768190
C         5.86920701148365   10.39030055411141    1.73727877980309
H         6.91760304482629   10.60411528442246    1.87871867138544
C         5.45471984806157    9.60391080037762    0.67642021255294
H         6.18136274317148    9.21777048987615   -0.02522119304045
C         4.10934627547370    9.33453937811421    0.49016909982996
H         3.80507480759422    8.74107493805459   -0.35824667060777
C        -0.28672731113940    7.98600852798221    1.46454397954030
H        -0.67923361095202    8.42908820295865    0.54764815191062
H        -0.52450014177368    6.91950617160856    1.47310815673412
C        -0.90053521307645    8.63903469252514    2.66915642484342
C        -1.31050910648280    9.96584213508633    2.63943043577043
H        -1.22701023490250   10.53550160361766    1.72488888653185
C        -1.84840981185448   10.55966947236671    3.76843985499387
H        -2.16393614886035   11.59127839275055    3.73227562623016
C        -1.98650059422376    9.83299679979187    4.93806722540464
H        -2.40452697017848   10.29699731852411    5.81815840444160
C        -1.60074211394277    8.50314017063226    4.97015706353788
H        -1.72597452081649    7.92467072202777    5.87383574174670
C        -1.06404326935774    7.91091523743530    3.84180360752189
H        -0.77700063763879    6.86849853357099    3.86366970799811
C         1.68123278219473    7.24953468266618    0.27073233150852
C         2.08517307688594    5.56221711582034   -1.12849723510406
H         3.06075813923320    5.07834096594451   -1.24286767597310
C         1.00132197227123    4.54666196301013   -1.55002595395031
H         1.11268661820563    3.68228619531045   -0.89049307001113
C         1.24602315690879    4.09050558517193   -2.98649840495802
H         0.54591999095624    3.30016100985494   -3.24131579746953
H         2.25450663064954    3.70108259377537   -3.10262594768904
H         1.10723499597244    4.90248606963213   -3.69599480124244
C        -0.41383655206739    5.08566466777018   -1.36731421592380
H        -0.59742383130060    5.30630148090934   -0.31917413099088
H        -1.12990160882607    4.33227451639492   -1.68281807598321
H        -0.59193675158290    5.98243852331677   -1.95609126249278
C         2.01663451631960    6.89039487052389   -1.90471214803533
H         2.97770270583665    7.18288947988137   -2.33956208144031
H         1.25941441787492    6.89865029488262   -2.68856377021515
C         5.10890907825835    5.35975163656251    1.25155422574898
C         6.38148657695059    5.82848729272062    0.79763317195525
H         6.42654312025571    6.91551212605463    0.87969160874247
H         6.53296695864472    5.53720111990576   -0.24235942412384
H         7.17469176343257    5.39079799472738    1.40503743905512
C         1.53114701638739    3.33374187053795    5.28516503676844
H         2.34090215028584    3.91240689283856    5.74683853513330
C         1.26438655846713    2.10987550418389    6.15977810493586
H         1.09263796377115    2.43728935987582    7.18426547438991
H         2.09837791356097    1.41328048566329    6.16609205606769
H         0.37268714491711    1.58303785113371    5.83134895216385
C         0.28684844739757    4.22009989928327    5.24179784156389
H        -0.61283979535802    3.62486922921493    5.11423165715878
H         0.34108877786976    4.92316446150567    4.41439802141270
H         0.18399745855620    4.77182310623383    6.17549824134257
C         3.85246015508010    2.10098879472982    4.01600971710562
H         3.57091971962074    1.06572650638510    4.24014175714725
C         4.59600482310076    2.66243555687128    5.22456482958725
H         5.54313558934606    2.13410742987436    5.32651641920164
H         4.04848677013118    2.53052560785734    6.15286679319421
H         4.81927598821142    3.71776127151157    5.09527057799343
C         4.79703368528016    2.10158902480539    2.81386725108646
H         5.35077565245586    3.03591735891347    2.77663848035670
H         4.25779900991192    1.99281690139719    1.87707246933262
H         5.51593300079458    1.28897278287978    2.90023454130096
C         1.24765908288066    1.43302618403241    3.06684782649946
H         1.24171557076865    0.79097330327609    3.95466742396466
C         1.88518091788172    0.64772548831871    1.92457514187313
H         1.22815708818435   -0.17612053651286    1.65297480988323
H         2.84685346913243    0.22596767841836    2.20027039365894
H         2.00881563528942    1.28015641058610    1.04902706083937
C        -0.18895006107969    1.77902784407682    2.69540308440231
H        -0.20277391493453    2.39806675670187    1.80324409204300
H        -0.69312581629903    2.31595164733321    3.49136669569438
H        -0.74509004346857    0.86538940302555    2.49536072800225

