77
CSD_code = ONIYIU | q = 0 | S = 0 | Stoichiometry = C38H31IrO5P2 | MND = 6
Ir       -2.89664988810901    8.59649630775292   10.45081567401406
P        -1.20138452325993    6.98963728737751   10.93350375514075
P        -4.14073369706405    8.28582304151924   12.29243994925216
O        -1.97501632325365    8.97020462393338    8.57360011539387
O        -3.36105576822734    7.29393955171487    8.62398479343356
O        -3.49123923998939    9.14488121428208   13.48104098412196
O        -5.55774022748844    9.00164183755263   12.03492991020050
O        -4.56498061337454    7.05076636139341   13.20560436418028
C        -2.07543981259300    9.97058734815484   11.71592547099056
C        -1.05522150803362   10.82990819293843   11.33493804811295
H        -0.74789540451783   10.85511149641946   10.29966039393345
C        -0.43521272230833   11.65972110398192   12.25728179560697
H         0.36134130750009   12.31543144960435   11.93800805266533
C        -0.83458632997372   11.65032343636299   13.58101986675986
H        -0.35176131224707   12.29264273280591   14.30154308162350
C        -1.86453930728810   10.81741155196156   13.98653432942010
H        -2.20297898823878   10.79738827296574   15.01050472347416
C        -2.46921280125215    9.99229192914010   13.05641634729599
C        -4.45068743688636    9.88662136368364   10.07337913662436
C        -4.52159937319718   10.75403127581062    8.99070754123950
H        -3.67664050081850   10.83525490385346    8.32250164004790
C        -5.65175582569409   11.52138951887288    8.74808788582895
H        -5.67574966500454   12.18300253750680    7.89440238352319
C        -6.74245754349279   11.44286399576808    9.59354186359996
H        -7.62450699180625   12.03688735779696    9.40749650215791
C        -6.70100348229471   10.59937399545531   10.69168730049401
H        -7.53148641549134   10.52312018843482   11.37644889405107
C        -5.56603976488069    9.84239914499283   10.91646804265160
C        -5.20966836222497    5.93436557223504   12.71989207865451
C        -5.70947030767096    5.85920034163315   11.42988906422711
H        -5.57980537275394    6.69246106466503   10.75447771140373
C        -6.36702621189583    4.71265374053021   11.01922542653129
H        -6.76082676566917    4.66006964507003   10.01558741953839
C        -6.51673937012462    3.64236096453221   11.88408352627244
H        -7.03230003279346    2.75114980665139   11.55968229981386
C        -6.00012576022923    3.71716127687673   13.16674925337461
H        -6.10745624969069    2.88391479608873   13.84456552420931
C        -5.34679123070218    4.86005269079732   13.58933276580382
H        -4.94335803722480    4.93897464592289   14.58649844354772
C         0.03467510296212    6.69222317527052    9.63008303314733
C         0.29746115700971    5.43459105738411    9.09983888297536
H        -0.19938669231492    4.56195114115273    9.49958439269777
C         1.19479541720614    5.29922111828592    8.05409906679616
H         1.39468122492358    4.31923158117900    7.64539817453253
C         1.82965915264933    6.41202341121769    7.52876418204683
H         2.52394633735368    6.30101382935090    6.70876289029698
C         1.56614613709301    7.66937072292002    8.05024044200159
H         2.05303437209558    8.54002965792623    7.63604258204053
C         0.66942571184174    7.81126986013353    9.09179136614340
H         0.43480909622778    8.79127891279111    9.48369613624314
C        -1.77306927905882    5.29913109129158   11.32022452574027
C        -2.80016058278154    4.77620659542909   10.53775327140709
H        -3.22323939050101    5.37514960727313    9.74386692403259
C        -3.26815474847520    3.49532168305189   10.76529088347761
H        -4.05669346920598    3.09362870964124   10.14715034641736
C        -2.73185094352261    2.73307216760968   11.78911813615373
H        -3.10578496792713    1.73729664582599   11.97556352034633
C        -1.71049398306942    3.24784046872941   12.57026989739987
H        -1.28388774786907    2.65212630470280   13.36425774585884
C        -1.22397991887443    4.52109548998726   12.33450666603843
H        -0.41592967223497    4.90877734308936   12.93804108632759
C        -0.19850169695786    7.40648175831016   12.39809014298955
C         1.12039424854531    7.83605092133946   12.33959112849722
H         1.64856169754948    7.84322513008673   11.39734686979964
C         1.76648833039516    8.25090300638114   13.49161181824251
H         2.79237962628630    8.58472718316624   13.43697683950191
C         1.10473767957362    8.24284650678558   14.70654837768952
H         1.61091660203867    8.57436510839405   15.60082767565573
C        -0.20938631150045    7.80724207979669   14.77308010976978
H        -0.73073927873634    7.79560399971541   15.71848242227455
C        -0.85831976160506    7.39716773391962   13.62622863534588
H        -1.88649985585406    7.06184719548608   13.67453264752789
C        -2.54492380545181    8.00658224301109    7.99727903680454
C        -2.20056404437336    7.69942823623969    6.56049847333121
H        -1.34797667883276    7.02065892342664    6.54827905989947
H        -1.92569155125124    8.61348740210688    6.04192682239143
H        -3.04247565298808    7.21791543035250    6.07119942935075

