96
CSD_code = ONOBOJ | q = 0 | S = 0 | Stoichiometry = C47H42BFeO2P3 | MND = 6
Fe       15.96242603451070    8.29364539939252    6.59074628110249
P        16.93211944244890    8.32155954196047    4.62229220229056
P        15.45571462112396   10.44109244597588    6.41939951870767
P        13.96717628325315    8.00218446441623    5.65379078689210
O        16.35738466297956    5.52721996348888    7.30438833925029
O        18.38412521527892    8.47185218815775    8.14623069122332
C        14.33952236285246   10.76430857653746    2.32393280723387
C        15.33165706602623   11.39242091449655    1.56864163516430
H        16.36667712691055   11.29703415500915    1.87389278323941
C        15.03931337212993   12.14061378703202    0.44372356299465
H        15.83695048525773   12.61114038404588   -0.11613375682900
C        13.72565927229008   12.29092557382646    0.03343501858401
H        13.48978389112047   12.87409364004819   -0.84589054516623
C        12.71935614329049   11.68845613641122    0.76615047179089
H        11.68767869482988   11.80176447418916    0.45981633068319
C        13.02770087444816   10.94213469738890    1.89089078050813
H        12.21677145448882   10.48882856593533    2.44436235033901
C        15.83993140247831    8.74318824405518    3.24788533194491
H        16.46669351567663    9.00320376645633    2.38831844616248
H        15.28765333421351    7.82720650072201    2.99998096396954
C        15.44172594383160   11.01820073812145    4.70930670139057
H        14.95869963510981   11.99947091243652    4.66755079623278
H        16.49426005581111   11.17349761072850    4.44284527094463
C        13.46705777569134    9.20464463941015    4.38497533273024
H        12.83698411015277    8.65480817484896    3.67678344275693
H        12.84843961879165    9.95726341113850    4.88132643182713
C        17.82165513003437    6.78883504685869    4.16396844894473
C        18.75363356450994    6.30776683417313    5.07964517349222
H        18.90084668958636    6.84000569954119    6.01115954149962
C        19.48130045081270    5.16647664363372    4.80477579049591
H        20.19999313345490    4.79884995204827    5.52230687515847
C        19.28499842874530    4.49349637721210    3.60890432874397
H        19.84891404787425    3.59776774544820    3.39438970069362
C        18.36614549787169    4.97102354954437    2.69012590914095
H        18.21421758744982    4.44948917980677    1.75595984353737
C        17.63734220588394    6.11600777603417    2.96187506739225
H        16.91546161593949    6.47557359348629    2.24225389504931
C        18.37204239672958    9.42805527134195    4.38604713626813
C        18.79448773115384   10.31855044506539    5.36220929282432
H        18.25713614341241   10.38044596477441    6.29871157369212
C        19.88504094821865   11.14108114231799    5.14243415135984
H        20.19365316457192   11.83446305780281    5.91136910915142
C        20.57199355715770   11.07278609429676    3.94288982055035
H        21.42387194097813   11.71323854361456    3.76863892543621
C        20.16529994778359   10.17721624012924    2.96593740514242
H        20.70232284782073   10.11745818285756    2.03040087554899
C        19.07472220905397    9.35814170890608    3.18493515397030
H        18.76752332792640    8.65515701629940    2.42228486468524
C        16.46280216366663   11.62958707907243    7.38133834433243
C        16.79717270137052   11.29710916247331    8.69086633892638
H        16.48271125795272   10.34205675893281    9.08961340086576
C        17.53452659204697   12.17010874677258    9.46734946137576
H        17.79450284676944   11.90201721656615   10.48093815080551
C        17.94448479142333   13.38572855825119    8.94291879270725
H        18.52581473953665   14.06668080657628    9.54704838253486
C        17.60929469695122   13.72465981846646    7.64310751427299
H        17.92769371203915   14.67198847617336    7.23231595600048
C        16.86834765524316   12.85398872064808    6.86327879198879
H        16.61907075502643   13.12450722441107    5.84798088294772
C        13.85791205692818   10.93865383309993    7.17314200785150
C        13.00203515743106   11.86718456932401    6.58909247999143
H        13.21896380442003   12.28249410518222    5.61617032143432
C        11.84478707289185   12.25797951746400    7.23988525728261
H        11.18395584980616   12.97111980743739    6.76798258992636
C        11.53342608281883   11.74434233101003    8.48678412881554
H        10.62955664669919   12.05294528997671    8.99100642897238
C        12.38814008302493   10.83324923583354    9.08353919438803
H        12.15472903113461   10.42568511576925   10.05624034278847
C        13.53899187153134   10.43605777108305    8.43093519228378
H        14.19116439338349    9.70881338286171    8.89281665176321
C        12.59926578968044    7.89478131048843    6.86045355324733
C        11.40469490971355    8.59643704635643    6.76656285868370
H        11.23247520085441    9.28713436464896    5.95400272041976
C        10.42087845518168    8.42529076125798    7.72534017687204
H         9.49874882901690    8.98316484453334    7.64887155511281
C        10.61438804713769    7.54658153622949    8.77611728630683
H         9.84551038063554    7.41887617847846    9.52394650347360
C        11.79565313226374    6.82638791768302    8.86414291277654
H        11.94713226129226    6.13171375758110    9.67757279105542
C        12.77938844932355    6.99898101758012    7.91113323207357
H        13.70841355750455    6.44721098364283    7.97435393887561
C        13.65479507195891    6.40307662669064    4.82176022264136
C        14.68023608946806    5.53111882399092    4.49049375269790
H        15.69945624765722    5.78553846254016    4.74482088051761
C        14.41328975770917    4.34501187702258    3.82955602255514
H        15.22666704744903    3.68045818628565    3.57610849984462
C        13.11044881940317    4.01677562491049    3.49880048715916
H        12.89778291818869    3.09019758754128    2.98643933121909
C        12.07742949552141    4.88146911459427    3.82728058964527
H        11.05899242026105    4.62785861008867    3.57104512721985
C        12.34532685350531    6.06773428162538    4.48202159822859
H        11.53635090309968    6.73856967740939    4.73826987159910
C        16.17513123646802    6.59357841926360    6.92400350826334
C        17.45351308761474    8.48750677258326    7.47512012672167
B        14.75219311140738    9.93448278902356    3.64800680886016
H        15.32218900361885    8.32256092914291    7.87276017293097

