64
CSD_code = ONOFAZ | q = 0 | S = 0 | Stoichiometry = C24H24Cl2HgN4O9 | MND = 5
Hg        1.34973816790245   12.77738346090820    4.65838380136990
Cl        3.38786271218370   13.22462001826360    3.71862375700193
Cl        0.16114083624157   12.12138689718877    6.49406906943974
O         0.50845217180399   13.52744687274983    2.02775538317605
O         0.75910452590472   11.17933532171064    2.95385227973094
O         1.83845290967095    9.70909670132043    1.84325301525243
O         0.51628426813548   17.84818760316772    2.74792398754484
O         0.70794264426115   17.23449621590857    0.31451119127438
O        -0.26661597065707   18.47500731093875   -1.13023991754706
O         0.45314747566012   16.83835977754770    7.20253172769618
O         0.43016124367115   19.26580365139251    6.58367247215346
O         0.89165539177883   20.74243343128522    8.06027945911874
N         0.16975003234854   15.17698276147295    4.47987498788352
N         1.45098857570163   10.84575346471822    1.98663287085008
N         0.15405185317125   18.27082764688458   -0.00830959149185
N         0.82505507795110   19.58680989638870    7.69013907933605
C        -0.73199292086882   15.12599620990516    3.31985656040095
H        -1.27429462197308   16.07455686086833    3.20547574360825
H        -1.45667177616904   14.32888671369724    3.50833119154918
C        -0.03654123456270   14.84033486272281    1.99686155952226
H        -0.78028126975676   14.89946511441962    1.19225566000863
H         0.73756989618032   15.58553917339530    1.80761596676725
C         1.30545468894459   13.13572302780226    1.01877627910646
C         1.78096994147765   11.80403015437273    0.99513881092382
C         2.62193932243835   11.37024383408598   -0.03546422456658
H         2.97206640580295   10.34981853915451   -0.00287754017000
C         2.98971752851836   12.21839815166179   -1.05109740995245
H         3.64195500284734   11.87661665614547   -1.83823389513549
C         2.50885504362609   13.52247500061923   -1.04573214900227
H         2.78381665404112   14.20217492373427   -1.83760607341729
C         1.68066188863254   13.97278175220917   -0.03827708276155
H         1.33693527067872   14.99319380964244   -0.07234143784584
C         1.23077221280294   16.18341074894932    4.34280677980275
H         1.88483626878508   15.88872470770137    3.52054683692064
H         1.82884767159078   16.15644982287691    5.25290948657461
C         0.79114497492953   17.63335957266537    4.12567611858241
H        -0.07973897913672   17.87681953090314    4.73876362477156
H         1.61129779242464   18.28868019327897    4.43691788570579
C         0.19555436699195   19.08403555752628    2.33996307834844
C        -0.01109016599580   19.30532245079818    0.96093245378562
C        -0.38140957981728   20.56638885277965    0.49194797183065
H        -0.52887807020486   20.68612449812009   -0.57058834428136
C        -0.54090518061304   21.62008958369493    1.36149746410382
H        -0.81922413270960   22.59360288822473    0.99197217902385
C        -0.33511045182156   21.41228626082800    2.71980593237021
H        -0.45608398198681   22.22931249245982    3.41437112262762
C         0.02211570326521   20.17046573110341    3.20456160475987
H         0.16260334940458   20.04240233301712    4.26542225842525
C        -0.66530175061792   15.38323833852038    5.67314092666831
H        -1.33569768352845   14.52456087279167    5.74536633115711
H        -1.27408102865262   16.29337467547790    5.58018888984567
C         0.11059234319361   15.47822783730001    6.98278781394455
H        -0.52959570287526   15.12232305761874    7.79740801266229
H         1.00578480646364   14.84442232799717    6.94320068683828
C         1.04528772911761   17.19727716964368    8.34972509836655
C         1.24020139030844   18.57216803802892    8.60716145172580
C         1.84459818443813   18.99233223844420    9.79248304099752
H         1.97139130419411   20.05336355318266    9.94521625611146
C         2.26435879305761   18.07876392826829   10.73138494668936
H         2.73336175973931   18.41108702753726   11.64302301829304
C         2.07566041913442   16.72447901207455   10.48750534037266
H         2.39992981040136   15.99555793693794   11.21418781472656
C         1.47593475256545   16.28985299627705    9.32293694475404
H         1.34511133955002   15.23232994870334    9.16324144167458

