77
CSD_code = ONOGAA | q = 0 | S = 0 | Stoichiometry = C32H32N4O8Ti | MND = 8
Ti        3.33784307278261   -0.16515705656963    4.04667477713385
O         3.14003336831921   -2.02052990938261    3.79285361633559
N         3.41520258270166   -1.85201108478611    5.07696984269427
C         3.34484719995133   -2.80133168983288    5.92704297021564
H         3.05047882481480   -3.80731868913856    5.62559794591328
C         3.62789556679724   -2.53825744366079    7.32478239592999
C         3.28173232769426   -3.48687238975818    8.30913957970448
C         3.51833386858298   -3.19525393962428    9.64682681085105
H         3.25643193769690   -3.90224223493188   10.41839562583574
C         4.09226196886932   -1.98729288305051   10.00954561682640
H         4.26347874730649   -1.78051306222070   11.05585663808165
C         4.45232162857159   -1.05989616521005    9.04674478289772
H         4.90847121801934   -0.12442613700820    9.33180532467700
C         4.22469209453121   -1.33868838386439    7.71323118550860
H         4.51620654047566   -0.63597548254296    6.94268505140558
O         2.71795571626470   -4.64380051355514    7.86278831797554
C         2.36059953709769   -5.62959122371719    8.80032437559022
H         3.23011190350188   -5.98549843703685    9.36240382539943
H         1.94877315764781   -6.45229314893943    8.21764496424637
H         1.59929131539014   -5.26577047781532    9.49771584480336
O         1.56594448654230    0.01826740504046    4.65980396485812
N         2.36487155167887    0.62050145633380    5.52088294996611
C         1.94688455538961    1.10504463839016    6.62423589595642
H         0.89495176693428    1.02454104676075    6.89921919671930
C         2.85806260533610    1.76195052993010    7.53911340123139
C         2.46622419670811    1.99817836937811    8.87256103647873
C         3.35167403266670    2.62092352044796    9.74316276737429
H         3.07518110433456    2.81077257102823   10.76842475809936
C         4.60807099982187    3.00658449196967    9.30434153125674
H         5.28164471464673    3.48973875219745    9.99694704398034
C         4.99844226568498    2.77799707775636    7.99558976503706
H         5.97809678822755    3.08249840832193    7.66129410311364
C         4.12678939703423    2.16130730924993    7.11884157253464
H         4.40966730375182    1.97780502306008    6.08893308134797
O         1.21904420510571    1.57289845127746    9.21966390644312
C         0.78929160255667    1.75106052218076   10.54645246549749
H         1.43263545131124    1.21540381866044   11.25197184135935
H        -0.21529569985126    1.33270576259836   10.58838314152065
H         0.74942036260871    2.81047245999631   10.82022186392923
O         3.22534312423842    1.44325396465027    3.07391179681031
N         2.83167293372249    0.45838344685412    2.28786299548408
C         2.55774662131319    0.63228105961532    1.05429574781971
H         2.65366791028328    1.61966213026230    0.60201664940729
C         2.12643776222087   -0.47457120027195    0.22518915800014
C         2.14089018086981   -0.34737109327500   -1.17879100301627
C         1.70036956498916   -1.67276097621152    0.79835439070416
H         1.68880091785165   -1.75133701825230    1.87911640805109
C         6.29545888364704   -0.35039312946915    2.73854972444032
H         7.21224008003602    0.06150475829017    3.16211510166109
C         1.31868500757028   -2.60048725882493   -1.37339342762229
H         1.00651801202103   -3.42151834132844   -2.00212748490360
C         1.73461973916322   -1.41842158065309   -1.96460413732162
H         1.73866355941887   -1.34548725665210   -3.04085618766404
C         1.30089227044036   -2.73103615700395    0.00505972349999
H         0.97392520145897   -3.65431630068366    0.45767878634512
O         2.57801492021844    0.84515477656164   -1.67228724441043
C         2.63974707283959    1.01810429825721   -3.06624700696773
H         3.32458771913807    0.30081095190919   -3.52997187992520
H         3.01922626338433    2.02717925616860   -3.22029015659274
H         1.65118937645642    0.93098842583087   -3.52890230382964
O         5.09937616750575    0.20099037649611    4.60147332499135
N         5.19771277908387   -0.32204313480679    3.38896549294130
C         6.32554851704375   -0.90870516754403    1.40055238124412
C         7.44308308900111   -0.69436279231733    0.56757047037117
C         7.43162015385506   -1.19739817597721   -0.72753484452087
H         8.27197950047070   -1.04098297344423   -1.38561500796541
C         6.33594600031923   -1.90575059088218   -1.19426382665048
H         6.34736155155687   -2.28390859172465   -2.20603623816475
C         5.24400233998126   -2.13672595242090   -0.37505795938162
H         4.39663079706603   -2.69755225099755   -0.73819432868842
C         5.24402596032384   -1.64418918363120    0.91533971696394
H         4.40905181423401   -1.82974724876067    1.57931695567706
O         8.47232781875411    0.01662087332713    1.10675028355781
C         9.61657360144406    0.25290402841832    0.32356516142027
H        10.10122078976986   -0.68247233468441    0.02548255115146
H        10.29407218849974    0.82138900008601    0.95895835251750
H         9.38030554233477    0.84178010115201   -0.56842591416724

