77
CSD_code = ONOGEE | q = 0 | S = 0 | Stoichiometry = C32H32N4O8Ti | MND = 8
Ti       -0.67112865785093    1.39903222689494    4.82908994610026
O        -2.02747390490763    0.31788987082609    4.09331892259541
O         3.86940730970261   -1.52439827255605   -0.39124274744913
O        -0.89506550108911    2.70503339881378    3.49618289387177
O         6.71146252687344    1.69277553136997    3.04058015060440
N        -0.92608134394253    0.03372206122116    3.41342968863035
N         0.39492811412532    2.42888837859597    3.58249061661121
C        -0.93611269280767   -0.69537005785032    2.36585681486841
H        -1.87272578121461   -1.11753361369619    1.99170632172046
C         0.29386391396977   -0.95220300173225    1.64536324211907
C         0.27245360352085   -1.53654162647329    0.38153452340623
H        -0.67164093349729   -1.82383407906060   -0.05872821508239
C         1.44000608914276   -1.74558964141664   -0.32997222849895
H         1.38310546074909   -2.19722748362638   -1.30793423136566
C         2.66359543962856   -1.37099065814954    0.21698626985872
C         2.69343153735986   -0.79742591249210    1.49342766518751
H         3.65000952613367   -0.51673956638430    1.90461713373370
C         1.53181805219122   -0.59563858424653    2.19803665459251
H         1.55817901048313   -0.16960020367035    3.19278854066082
C         3.91200271337967   -2.10100759343607   -1.67405555785498
H         3.52137727168837   -3.12380022746953   -1.66882720269933
H         4.96416261672837   -2.12002254958077   -1.95354521794501
H         3.35569511158050   -1.50289512095743   -2.40284276590247
C         1.25582957705586    2.93897001836694    2.79083978434563
H         0.92880805747645    3.62515992873940    2.00567375474829
C         2.66328348569548    2.62048899704483    2.89559488766866
C         3.16641334695813    1.93742076731494    4.00519454931507
H         2.49039353917780    1.66806212473061    4.80795172594489
C         4.50581580305537    1.61212209855607    4.08908595438829
H         4.86137737579769    1.08416517971643    4.95975544526368
C         5.37915347004483    1.96632650813880    3.06209256560714
C         4.88306260745147    2.66082152844526    1.95597944958380
H         5.57257657567687    2.93191694646888    1.17221949332817
C         3.54826462744776    2.98517269905411    1.87730103393909
H         3.17843778508333    3.51900953328742    1.01423113412329
C         7.27398842109306    0.99121545769843    4.12294322612899
H         7.16627767683233    1.54514723912374    5.06093070404700
H         8.33196234440209    0.88597062202444    3.88736417992712
H         6.82776100949098   -0.00219001109264    4.23362221358654
O         0.68521506460731    0.31789418891336    5.56486759400371
O        -5.21166349191952   -1.52440059947723   10.04943336670683
O        -0.44719128691557    2.70504221781648    6.16198808106459
O        -8.05371844311451    1.69278459071022    6.61760200759260
N        -0.41617778852274    0.03372940225888    6.24475767681718
N        -1.73718490245408    2.42889724792169    6.07568165278352
C        -0.40614756169469   -0.69536517373129    7.29232882725457
H         0.53046479126286   -1.11753232266541    7.66647717594598
C        -1.63612331258109   -0.95219765557505    8.01282384265759
C        -1.61471195121059   -1.53654927814933    9.27664652900343
H        -0.67061722283622   -1.82384895811299    9.71690432439668
C        -2.78226340148145   -1.74560045717140    9.98815391476096
H        -2.72536182579766   -2.19724767199808   10.96611166018044
C        -4.00585282735376   -1.37099122695242    9.44120238175459
C        -4.03568978627201   -0.79741154048781    8.16476779880443
H        -4.99226784178648   -0.51671821776376    7.75358279821504
C        -2.87407726470001   -0.59562161168270    7.46015796822188
H        -2.90043917946205   -0.16957587609069    6.46540899921090
C        -5.25425734054460   -2.10102604252437   11.33223903566046
H        -4.86363616391177   -3.12381944940087   11.32699696686459
H        -6.30641633230033   -2.12003961389247   11.61173222831538
H        -4.69794458336039   -1.50292432031737   12.06103227003430
C        -2.59808662285463    2.93898454749228    6.86732881613106
H        -2.27106503554489    3.62517948844664    7.65249043848142
C        -4.00554023184596    2.62050297689775    6.76257595806914
C        -4.50867025087797    1.93742465387191    5.65298242259012
H        -3.83265064082678    1.66805998830756    4.85022699813624
C        -5.84807229969394    1.61212372893877    5.56909491577370
H        -6.20363414757570    1.08415872626419    4.69843039884916
C        -6.72140983841351    1.96633718379911    6.59608546681253
C        -6.22531905143956    2.66084317711133    7.70219187939677
H        -6.91483302000992    2.93194515235926    8.48594954442114
C        -4.89052130482283    2.98519553068851    7.78086692050881
H        -4.52069417986078    3.51904045382315    8.64393170401614
C        -8.61624488544393    0.99121281367380    5.53524678927380
H        -8.50853695883123    1.54513554784597    4.59725355670734
H        -9.67421818309213    0.88596838940675    5.77082888324165
H        -8.17001588118202   -0.00219290308583    5.42457688766003

