27
CSD_code = ONOHAB | q = 0 | S = 0 | Stoichiometry = C8H8N2O6S2Zn | MND = 6
C        -0.16934769305325    2.26884788841035    1.47361756699602
C         1.54964657882695    2.75934510010164    0.17384887150411
H         2.28530682876059    2.49849493293108   -0.56471870968667
C         1.37752690813675    3.96769188493681    0.77049690200890
H         1.93367962385343    4.87067479600240    0.62137339750241
C        -1.23289311973111    1.34520196800252    2.05479973226753
N         0.67369933958892    1.81723725292558    0.58741019169561
O        -1.92671092467274    1.74523683914688    2.96533460925649
O        -1.23896195715452    0.20491212641502    1.50157519904863
O        -1.28470776918452    1.12405390166119   -1.46935749005524
H        -2.12120273766224    0.72138638650947   -1.72075822115206
H        -0.72037618963062    1.15278657526617   -2.25048140365883
S         0.06507525508353    3.91016728551384    1.88333132070842
Zn       -0.00000678606673    0.00000156133315   -0.00000492920354
C         0.16934822655783   -2.26885802060468   -1.47361439054904
C        -1.54964579090313   -2.75933607322693   -0.17383182167389
H        -2.28530608805736   -2.49846562002482    0.56472955198944
C        -1.37752639895189   -3.96769407445263   -0.77045600919467
H        -1.93368279110135   -4.87067424559315   -0.62132019038205
C         1.23290555207852   -1.34521540764341   -2.05478853527399
N        -0.67369735440061   -1.81723649940661   -0.58740997662047
O         1.92668959102175   -1.74523054168060   -2.96536014777313
O         1.23894316169575   -0.20491303752646   -1.50159987940527
O         1.28471937675061   -1.12404496936097    1.46932104014575
H         2.12120825492198   -0.72136681250550    1.72071813363401
H         0.72042267417795   -1.15282959911439    2.25047283171935
S        -0.06510577088463   -3.91017359801622   -1.88332764384781

