19
CSD_code = ONOJEH | q = 0 | S = 0 | Stoichiometry = C6H6Cl2N2S2Zn | MND = 4
C        -7.22528544189057    2.58028956352094    8.47169786363076
H        -7.20452602051122    2.28885786962041    7.43881559131098
C        -6.52912514331546    2.75909178995475   10.55313789542906
H        -5.81288470792181    2.57642115506250   11.33329677620269
C        -7.71929381586338    3.39648314367882   10.67704193877853
H        -8.15631196647455    3.83777751793503   11.54886162510621
N        -6.26582450268392    2.30713313329322    9.30099312660488
S        -8.53754932547622    3.42544374238112    9.16561806308663
Zn       -4.64827577296318    1.01366004407901    8.78923552985437
Cl       -3.96520545265306    0.29894813314637   10.75653155514173
C        -2.07164173265173    2.58026328716701    9.10686523692595
H        -2.09259851189727    2.28816423657953   10.13954464497787
C        -2.76696935678337    2.75909779632979    7.02518606097413
H        -3.48269050083366    2.57615297810181    6.24461291601554
C        -1.57704784528449    3.39713085063493    6.90192246460347
H        -1.13976663670841    3.83860867867986    6.03032970608889
N        -3.03058393773396    2.30681836330797    8.27711712080524
S        -0.75887456375312    3.42493461513295    8.41347652114291
Cl       -5.33174476460355    0.29732310138910    6.82281536332280

