49
CSD_code = ONOLUZ | q = 0 | S = 0 | Stoichiometry = C19H22N3O3ReS | MND = 5
Re        4.93030366312785    1.95523869723831   14.70445087713842
O         3.78353557800531    2.52721103908549   15.77567098595657
O         4.87771347242119    0.02700921247821   14.78667992961114
C         5.59013620489518   -0.69718896909784   15.72805651853010
H         5.52164118930038   -1.75970718445201   15.46648653808435
H         5.16942179338783   -0.54790034842741   16.72995317690008
H         6.64858466501840   -0.40706344512289   15.74400791904245
S         3.68748444408416    1.71495365069506   12.70587329803222
C         3.57047308224302    3.33520783582280   12.03665158232586
N         3.96275465796186    4.43777646888118   12.62303628687021
C         4.86114652174512    4.64060041007525   13.56634558014226
N         5.74354407867196    3.71892279823961   13.95831062779946
C         4.84187045237063    5.98492818614891   14.16641349434592
C         4.49661009002189    7.10137133497867   13.41010725708817
H         4.28451629123733    6.97882077745240   12.35948157082001
C         4.44441018889163    8.34878503461228   14.00350587315876
H         4.18622162089232    9.21486277635065   13.41207194721190
C         4.72043192537423    8.48875653086910   15.35405289741929
H         4.67923360179260    9.46433298161849   15.81522363272742
C         5.03989441588933    7.37532374837423   16.11580025528191
H         5.23692765632188    7.48105933422235   17.17190132087461
C         5.10197683018972    6.12671933642998   15.52866336201572
H         5.32431197209579    5.25088069229413   16.12139802844908
N         2.95732193378044    3.45967056393614   10.85565103842070
C         2.88408851692568    4.76305203473919   10.22056115443316
H         2.78753914998927    4.60702290932539    9.14425656165394
H         3.81659059303121    5.29583488310877   10.41523395121425
C         1.70734812373909    5.57719719931899   10.75012034150344
H         1.66985751416486    6.54334723105878   10.25448099434980
H         1.82385824384387    5.73031405070986   11.81887115547650
H         0.76989021879259    5.05690484774660   10.57124722497863
C         2.31514715193993    2.35052018836249   10.18496084173698
H         1.47893744486055    2.75059937227657    9.60702760686945
H         1.92414650465759    1.66347720266941   10.93719686210903
C         3.28121806518948    1.60752905336243    9.26572816996455
H         2.75860236719906    0.80582060691278    8.75260573886657
H         4.08916442354595    1.17745808329005    9.84977872550223
H         3.70329976843897    2.28074123089419    8.52310408325913
C         7.03544662929956    3.97558156369759   14.37226990026767
C         7.79213231642607    5.12300187323321   14.15956939970519
H         7.35517759235657    5.97940111061840   13.66816738904632
C         9.10557780659170    5.14896129609372   14.58679220544336
H         9.69338048071383    6.04185365322626   14.43752888854288
C         9.67791542299015    4.03985168277952   15.19864435510923
H        10.70610646697358    4.08217338502827   15.52538606711206
C         8.95563745827941    2.87730589791492   15.37895614426411
H         9.39804959600816    2.00226927596608   15.82939778260730
C         7.62878844360055    2.82594019118929   14.95054316908883
O         6.87943337071899    1.74716971377688   15.01427728865160

