95
CSD_code = ONOXUM | q = 0 | S = 0 | Stoichiometry = C45H43ClFeN2OP2 | MND = 6
Fe        8.71951172950060    8.08488544994010   23.65473043811939
Cl        7.33639245862533    8.01700786550728   25.32334945114632
P         9.79596842665794    9.79904459687764   24.40158636625815
P         7.12816040289325    8.90723251076490   22.43072266540999
O        10.42659805380505    7.56916860433008   21.41029916855069
N         8.00319318445722    6.34295251494851   23.14842161719040
N         9.93027619775260    6.92994205835029   24.83786939638948
C         8.54210772538315    5.19539307023386   23.82860391050887
H         7.94428211388147    4.96976710050352   24.72927684333250
C         9.97742805723736    5.57069987021685   24.28697128644269
H        10.61217128897582    5.60158710890112   23.39374653555024
C        11.23911750513287    7.52183083386059   25.10163864485723
H        11.81932121335204    7.46655100118077   24.17526422639829
H        11.78093314571010    6.96058298241218   25.87673886425040
C        11.04764711946087    8.97571722773961   25.52740138352789
H        11.99539983945674    9.51869975776941   25.55001689956875
H        10.60354789917654    9.00824748737709   26.52871649190396
C         6.88397233156725    6.28411757858238   22.44757951073467
C         6.28595706792785    7.42197990679593   21.97758408808289
C         9.75138729285891    7.88512505533701   22.28715299538499
C        10.50442587422717    4.54103579677203   25.25163967922819
C        11.43390892338506    3.60036486153523   24.82774779795584
H        11.79751188899019    3.63434789315468   23.81068539726342
C        10.48373190136508    3.49871715241352   27.42172116051952
H        10.10635108269973    3.46005591756842   28.43301269551506
C        11.41371619225820    2.56751585235146   26.99170761990624
H        11.76569439901655    1.80214577391580   27.66713771018292
C        11.88511299458263    2.61810340383765   25.69113308870271
H        12.60509082361680    1.89056998609514   25.34706738131554
C        10.02759283124734    4.47670579183247   26.55624265025094
H         9.28516584291239    5.18287917776118   26.90285271974957
C         8.63298404125633    3.95906669859929   22.96634578890055
C         9.01986790509399    4.06791294875537   21.63665922516214
H         9.20381979250242    5.04678713251286   21.21816207077363
C         9.15367018754263    2.93607582808915   20.85384871087289
H         9.44950053556716    3.03076653601762   19.81920203564534
C         8.91235571820318    1.68439457849146   21.39531865897640
H         9.01916245390726    0.80001681017241   20.78433975747783
C         8.53148343663466    1.56993110941466   22.72120663688935
H         8.34162095450650    0.59601113437795   23.14824597732093
C         8.39075999211410    2.70282455413416   23.50321250371801
H         8.09316192270882    2.61211567999302   24.53852842159580
C         9.25110137291144   11.14140549513506   25.51414217386496
C        10.17701632920847   12.08580752559346   25.95611606238617
H        11.20729253574245   12.02190502532967   25.63144695222690
C         9.77657975530378   13.10655066834969   26.79544411015454
H        10.49686325271040   13.83613833861554   27.13727738286692
C         8.45149802234942   13.19831178765940   27.19604156517407
H         8.14227723855885   14.00168876922912   27.84900894135611
C         7.53104545281581   12.26164510924371   26.76082717748061
H         6.49857038546204   12.32709911628726   27.07035722774393
C         7.92800255637300   11.23216543876749   25.92402173654710
H         7.21492232779705   10.49159382061293   25.60033785965068
C        10.80723941716725   10.76122060396216   23.23412751209420
C        11.99271777041121   10.26165142097860   22.70689558973669
H        12.38758081283103    9.32008469187915   23.06073039758740
C        12.66952675162299   10.96311689954929   21.72534478414788
H        13.59201692193828   10.56945792142278   21.32356488256226
C        12.16227096727732   12.16133663900383   21.25109235900603
H        12.69008624940959   12.70347974681929   20.48030858047905
C        10.97387953777625   12.65904261871163   21.76124299163438
H        10.57083764615152   13.58852066640782   21.38654963579060
C        10.29763183345571   11.96107173425797   22.74321635986584
H         9.36489220913316   12.33931484346020   23.13975635636260
C         7.39617716530465    9.82792362170172   20.87618350424776
C         8.65682568252260   10.19158502033835   20.42828830186236
H         9.52058909429278    9.96425017358023   21.03368642712467
C         8.80846826611365   10.85740501229758   19.22541203979031
H         9.79870883998166   11.14072919647608   18.89582933672248
C         7.70630812853319   11.16689530854030   18.44016016439808
C         6.44225427108004   10.79749946126820   18.89185004705805
H         5.57451700680327   11.03463938856112   18.29153115168846
C         6.28653410648227   10.13879089618403   20.09383418591043
H         5.29958811032588    9.86549809742983   20.44367700960602
C         7.86707073753440   11.86620243106567   17.12446869237044
H         8.82504540291317   12.37810067504604   17.07037669444968
H         7.06898290733780   12.58999088729792   16.97068850421007
H         7.82239899985220   11.14172868679388   16.31030997450274
C         5.92118942829840   10.03169262470954   23.20107767310538
C         6.15077642239631   11.40384129008320   23.18352710050280
H         7.00712927431278   11.78994884585019   22.64448837257702
C         5.29696605953672   12.26056827914693   23.84896429224863
H         5.48457045193156   13.32568997603829   23.83266158170649
C         4.20428086320136   11.76712335760467   24.55324858136713
C         3.98133204308024   10.39460000534535   24.56718889163000
H         3.13706633892505    9.99971084942523   25.11518708864793
C         4.83033160500629    9.53192823947098   23.90146621399125
H         4.66827471466034    8.46322647736314   23.92844320172208
C         3.27254396082571   12.69572639926366   25.27170990450593
H         2.93258648248715   12.25485266171929   26.20661875917074
H         2.39360134701715   12.89267383202809   24.65651552767634
H         3.75691523663493   13.64644413770042   25.48310080528542
H         9.40059730643161    6.89911887601718   25.71675889380276
H         6.44233592050465    5.30715310028275   22.25686069416598
H         5.42912173120754    7.41427611076697   21.32094727370222

