90
CSD_code = ONOXAS | q = 0 | S = 0 | Stoichiometry = C38H46AuN3O2 | MND = 2
Au        0.86864983375275   24.98147930467769    3.88725918822940
O         3.38640926558987   21.98900762038783    5.69971207767035
O         4.03869104938122   20.84143218439910    7.52686046446416
N         2.43827661169167   22.47249752516404    7.63263813152953
N        -0.93906751012465   27.41857571446008    4.19743480148240
N        -0.76069873111447   26.79500845567159    2.15841193708533
C         3.35293031503580   21.68261258897148    7.00536884064840
C         2.12476577004323   22.38633385948151    9.02587921621716
C         1.77243316765726   23.35337798892940    6.71634847104712
C         2.46622289885749   23.01235672463742    5.41557747895584
C         2.23595264260427   23.53612634246281    4.21680677244351
C         3.03230798946790   23.09386240622008    3.06019269837296
C         2.40939655187869   22.87074079169203    1.83118924790871
C         3.13824975732787   22.51157587842915    0.71553665407977
C         4.51578150037433   22.38873230478580    0.79336264697158
C         5.15063238976546   22.61907671686062    2.00216987640119
C         4.41889088482775   22.96212557379961    3.12304708468537
C        -0.39545099430636   26.47419506196666    3.41114101108327
C        -1.64392934389244   28.32402371306680    3.44658169262611
C        -1.53090323679214   27.92814539690551    2.15560783928863
C        -0.76574141986571   27.44625531337368    5.60763251451743
C        -1.61991584644498   26.68743244551272    6.40932471591895
C        -1.40583922217930   26.69728583478883    7.78102816499851
C        -0.37634847481792   27.43588515457284    8.33136640800484
C         0.46072366820439   28.17729575858194    7.51981439928087
C         0.28213607755504   28.19776756804567    6.14331500315477
C        -2.72644661586691   25.84918358135177    5.81448550142472
C        -4.08454282771925   26.21212577786488    6.41834221378220
C        -2.41350949015151   24.36455948451425    6.01419238566811
C         1.23203801004967   28.96846072477102    5.25710181457253
C         1.39304322916591   30.41746832947382    5.72028365281116
C         2.58420388301397   28.25092606624575    5.21846165911580
C        -0.38724855000364   26.02477670480635    1.02219638674262
C         0.87199402355098   26.21872478518640    0.45117828816767
C         1.21776511691985   25.43577982132309   -0.64184568618897
C         0.34883847831833   24.48181217927565   -1.13347353544140
C        -0.88649337052600   24.29379912255160   -0.54396260518645
C        -1.28060212340196   25.06544222304312    0.54009789679375
C         1.83738288838347   27.25146928650715    0.98160463142231
C         3.19534313097413   26.62332729490637    1.29930421093661
C         1.98466191733844   28.39652463849874   -0.02463444262529
C        -2.60981091348431   24.82253230886544    1.21671029277868
C        -2.51254442983434   23.55063289833522    2.06398668781408
C        -3.76025596356672   24.72635979084237    0.21369149582261
H         2.77461969301533   21.62839167759234    9.46055552173468
H         2.30074021265561   23.34645818745656    9.51982172319248
H         1.07916646159416   22.09781234885780    9.17215353116992
H         0.69187117645208   23.15110644436699    6.67736295318890
H         1.90697247633176   24.40883341667806    6.99407674846701
H         1.33443692096747   22.97932463503738    1.75787253466284
H         2.62915528698600   22.33456914872130   -0.22242363101849
H         5.08954109849700   22.11611532585408   -0.08126446640766
H         6.22572822817276   22.52717951016461    2.07220949607848
H         4.92311450356204   23.14028808055947    4.06059087236300
H        -2.15502709453144   29.15509586215236    3.88663841655994
H        -1.92579034898840   28.34865304241599    1.25397090979187
H        -2.04542872011243   26.11530986634607    8.42578888880395
H        -0.22045193455576   27.42800242016310    9.39976293122671
H         1.26818305565142   28.73888356169361    7.96218740968704
H        -2.78061220224500   26.03559198000718    4.73743768410126
H        -4.28252336541968   27.27592696783865    6.30291002580671
H        -4.87381432894237   25.65772010257212    5.91580301481791
H        -4.12110892351772   25.96975323923056    7.47676354831956
H        -2.36420261782077   24.11938629947639    7.07197270392912
H        -3.18535068302161   23.75276865251102    5.55344450527689
H        -1.45547004157112   24.12063176938577    5.55588863610497
H         0.83420593686391   28.99217432958192    4.23735479294875
H         1.89468014903721   30.47099823746973    6.68234908539580
H         1.98886401007324   30.97128420539160    4.99834514051867
H         0.42247734861319   30.90122886249403    5.81036838285040
H         2.46116689133802   27.22888214717245    4.86005909768915
H         3.26732310573606   28.77302184009058    4.55262917744919
H         3.02738034481299   28.21569088548437    6.21038273977354
H         2.18243882803216   25.56462908613338   -1.10549737182198
H         0.63874221678092   23.87403263969042   -1.97735146989413
H        -1.54719581280873   23.53240302791938   -0.92695117635538
H         1.44233339428404   27.66850926287364    1.91346654402282
H         3.69127907010791   26.27543465818230    0.39777997439988
H         3.83887009721384   27.35611517399179    1.78072711261014
H         3.07400164101900   25.77465165049945    1.96897444736456
H         2.39374607338152   28.03227977071774   -0.96352176823215
H         1.01946650851453   28.85743868466889   -0.22779694750233
H         2.65423377286839   29.15731735978514    0.37007078556949
H        -2.83058227292711   25.65938413212448    1.88772570288320
H        -1.70484826574835   23.63979648037150    2.78910782522165
H        -3.44502687719450   23.38057780372895    2.59753394076514
H        -2.31142313293724   22.68821428969315    1.43351073420308
H        -3.67726260462033   23.83311449549782   -0.39875658761299
H        -4.70927127713609   24.68289330315121    0.74362321043411
H        -3.77041998575386   25.59471188793834   -0.44198551613547

