73
CSD_code = ONOXIA | q = 0 | S = 0 | Stoichiometry = C31H36ClNP2PdS | MND = 4
Pd        3.10624591588326    3.18778084295792   21.53352521385729
P         4.85207958933221    3.85163525019587   20.27771782209813
S         4.42059183790271    1.41470174718955   22.83966001260787
Cl        1.24333172391488    2.41770833589139   22.55979710394715
P         5.59224855167285    2.91556264451844   23.32429863035191
C         6.51743943103159    3.20225099012242   20.67698150525307
C         7.43402528401096    2.90527504344476   19.67269306481793
H         7.14306863136386    3.01882355048444   18.63750562785467
C         8.69929733457352    2.43841422855933   19.98234592550452
H         9.39888668430665    2.21660666156654   19.19010982465841
C         4.54082114072008    3.05366166373138   18.66797546926115
C         5.39767218876337    5.72203952688571   22.96401802203204
H         6.41002401764638    5.69499728706894   22.58002016007958
C         8.14003119517093    2.48740270165028   22.30840836829692
H         8.39497941922324    2.29493096603439   23.33909597097866
N         6.33221742850249    2.63255407993104   24.80135880379263
C         9.05931248011586    2.24344067856734   21.30528776322923
H        10.04389225990823    1.87549380932118   21.55330762125468
C         5.22536869720247    5.58810733563602   19.85214174129529
C         3.39913448963230    6.95642267412038   23.46457880106297
H         2.86550924229982    7.89477445032773   23.49125204089086
C         3.84937766637125    1.84305484417929   18.73750367379391
H         3.52864379041040    1.45413524303771   19.71422068958392
C         4.21664940538069    6.52243552526808   20.06729672099454
H         3.28792357903194    6.19805345601021   20.51754556246295
C         4.77840123696763    4.55633092761849   23.39607465313124
C         2.76530105179597    5.78943303947066   23.87111670864444
H         1.74103693200616    5.81324384134231   24.21269333150705
C         7.68724610190151    0.76851454169927   25.77834166296045
H         8.45787983938747    0.98379885444363   25.04241599703965
H         7.64715209339235   -0.30857185552989   25.91832561437355
H         7.97505359189325    1.21657288167441   26.72706440746020
C         4.71174302442714    6.92516670151731   23.02433882807374
H         5.20295628851540    7.83335170643734   22.70780110336591
C         3.45042447540683    4.58376245277406   23.84808259572131
H         2.98836467239502    3.67925519252095   24.24564882808423
C         5.61721297160702    8.26100264073910   19.19416084886662
H         5.77052600129737    9.29740166732077   18.93176209483616
C         6.87416658772560    2.97665333772034   22.01245052434180
C         6.31685665339642    1.24989516756381   25.30214990268056
H         6.03633961745353    0.62820172764472   24.44537866764390
C         6.79532448765208    3.65947685309046   25.73763160024473
H         7.21605752122601    3.10797739681456   26.58232825424838
C         5.68173360654388    4.54972790879306   26.29946425445733
H         5.46164466798168    5.38293010577081   25.63938445086505
H         5.99664949638911    4.95480064079897   27.25925492218103
H         4.77259172323470    3.97438081425529   26.45212248744476
C         4.40875335660596    7.84989887673391   19.73207908186151
H         3.61676041773163    8.56544589872089   19.89658002910957
C         1.77257786163319    4.10439815131245   20.25864017665643
H         2.23469559505616    4.54746505212172   19.36964401331617
H         1.21587043829334    4.86545063672163   20.81383206648142
H         1.07848775402565    3.32252138548590   19.93541938277350
C         7.91465567405767    4.50474924651284   25.13669757203395
H         8.80258367737770    3.90309685350238   24.95729822114750
H         8.17744975863010    5.30606090502595   25.82316685521374
H         7.59634043234773    4.94438408612219   24.19631014293939
C         3.55123506334073    1.15073418222963   17.57934101086127
H         3.01624229048621    0.21433870014664   17.63287205960656
C         5.26138707976812    1.05787518759445   26.38831981655146
H         5.48100864458034    1.65927888051271   27.26766351819018
H         5.22714302439688    0.01264445828907   26.68358837111887
H         4.28308161257196    1.33552576958029   26.00279034528565
C         4.90564116192886    3.57376347590850   17.43206286276396
H         5.41307201585911    4.52757145245129   17.37156382492028
C         3.92632190158565    1.66751705315529   16.34824995959897
H         3.68517574788792    1.13163470247074   15.44210977413240
C         6.44492079873374    6.01013133299595   19.33217441364915
H         7.25328831018719    5.30695714523348   19.19188176295771
C         4.59547752111595    2.87762460959910   16.27587808189595
H         4.87327483026841    3.28604586076140   15.31485398735049
C         6.63529289830340    7.34123776985983   19.00493240736997
H         7.58482750626700    7.66087824577823   18.60011238412819

