92
CSD_code = ONOXOG | q = 1 | S = 0 | Stoichiometry = C43H42ClFeN2OP2(1+) | MND = 6
Fe        5.06502359684492   11.01238054659904    3.81808732314827
Cl        7.00651704904760   11.88854530707396    3.48626571500206
P         4.68913189939255   12.61453182236753    5.26881294839676
P         4.32975258315259   11.83392243790169    1.93028130656015
O         2.65113851374944    9.52865679335314    4.27356364508245
N         5.83076418206886    9.96944648878750    5.39909265616260
N         5.74163626501267    9.47878428259978    2.71718152018496
C         5.50190654079651   11.91804434546991    6.80461310226140
H         6.01733653910315   12.71309059440195    7.34650999207698
H         4.72808011251428   11.50076237268486    7.45474387944962
C         6.48758572989897   10.83433313102339    6.38526817280294
H         7.35790727412835   11.29005394371860    5.90814296099827
H         6.82878247610788   10.25439763108849    7.25150017559744
C         6.69712349648579    8.90550426303805    4.86504470442433
H         7.64153140329700    9.37414108479031    4.56900772627328
C         6.01591657973672    8.33830792337457    3.60112930068701
H         5.05553448037805    7.88952978603330    3.88072263127260
C         4.92116604655863    9.17234716392837    1.54603811174993
H         3.94612771085358    8.81513908055891    1.88847406295398
H         5.38245692509044    8.38475067028344    0.93684383574166
C         4.76111437663652   10.45820879039771    0.74297852378123
H         3.98769546554651   10.35219991773720   -0.01942981770795
H         5.70336852930853   10.70862958852809    0.24833608949109
C         3.55002508170641   10.21104262716342    4.06899230159315
C         6.97142731057908    7.80053204365297    5.85667761224648
C         5.92578463926061    7.15059374352742    6.50213741422797
H         4.89883022973362    7.43793702856772    6.31462583117016
C         6.18242578555541    6.11703332833929    7.38489661765673
H         5.36325664479520    5.61976413491071    7.88153449776764
C         7.48620654384640    5.71775322188556    7.62559877176222
H         7.68481820756084    4.90933044525493    8.31166704229670
C         8.53205215783005    6.35654368671636    6.98191305760604
H         9.54971406104713    6.04809382133007    7.16380645792993
C         8.27558171930141    7.39395708701101    6.10307444735949
H         9.09314519433192    7.88959887555162    5.60077770981898
C         6.89550131015298    7.28935481161637    2.96092064624346
C         6.51503906587705    5.95489704686428    2.96919969573511
H         5.57463058966807    5.66917741171814    3.41747844322139
C         7.33517967324307    4.98958351868054    2.41187360931840
H         7.02975724787514    3.95495577110613    2.42473354790771
C         8.54207627523397    5.35127001187308    1.83879764364598
H         9.18152010282188    4.59950006795971    1.40331268029041
C         8.92839514689076    6.68099305710587    1.82731410368544
H         9.87010266427113    6.96805382088978    1.38519929751111
C         8.11130875843468    7.64568660534449    2.38810023354173
H         8.43642768771016    8.67749741715087    2.38237861918052
C         2.97612073042729   12.91470021084760    5.81021401390310
C         2.26065657990974   11.92235882431152    6.47524778764360
H         2.74105435176112   10.99086150915997    6.74287668022489
C         0.92872572483310   12.11326893343749    6.79258337691907
H         0.38544946466339   11.34134717497076    7.31637151380439
C         0.29136321785196   13.28969760178551    6.43264374830751
H        -0.74833153959358   13.43711674141929    6.68111437383191
C         0.98820228320933   14.27120617697709    5.74676686775898
H         0.49130784887180   15.18374627935785    5.45459241928583
C         2.32103907357434   14.08405614500162    5.42992546774060
H         2.86060167767121   14.84548767587182    4.88405572266001
C         5.34422091850889   14.31301286936235    5.24212020395899
C         5.19402432717915   15.08189120935539    6.39813782869439
H         4.69574672234502   14.66447930282176    7.26355069231124
C         5.66322579526521   16.37959002066960    6.43074344189481
H         5.54697707310619   16.96937762847015    7.32750392733860
C         6.27961392837766   16.92497348093219    5.31357302050158
H         6.64712422951807   17.93923334271124    5.34379599845354
C         6.41913399639263   16.16929396371750    4.16323571117158
H         6.89454216049660   16.58876046821243    3.28957115034530
C         5.95187482714247   14.86610919139355    4.12466517453670
H         6.07339937861176   14.28089023093467    3.22908908449921
C         5.02296671519666   13.31463447267363    1.13563808557210
C         6.31435145427899   13.32613566581420    0.61463101898292
H         6.92378628839147   12.43492337580597    0.63291963997520
C         6.84128208932746   14.49410400278091    0.09400451853249
H         7.84173783625653   14.49411935708224   -0.31118396545991
C         6.09404496177749   15.66034298588984    0.10102459142862
H         6.50869338770267   16.56932603731229   -0.30705395681471
C         4.81817099115809   15.66165143962500    0.64236584971242
H         4.23827264192891   16.57186091577505    0.66150210549703
C         4.28617040149977   14.49862741638833    1.16574730755965
H         3.29679193318395   14.50255979278893    1.60275490631424
C         2.55415056477007   12.07304367521225    1.62041952301906
C         1.65459010931760   12.12684101529416    2.67544573479468
H         2.01988463778979   12.02285422040519    3.68527626499979
C         0.30620187058063   12.32619703180779    2.43501746779148
H        -0.38406563863702   12.36574650539540    3.26393606902049
C        -0.14838866916696   12.47687562652240    1.13627616192090
H        -1.19938434972411   12.62983776654194    0.94559266654180
C         0.74821673351646   12.44219753701997    0.07821198578292
H         0.39528769111721   12.57357951424333   -0.93339283122764
C         2.09485137996111   12.24614795436881    0.31530382536628
H         2.79533526184967   12.24566062446815   -0.50900181588337
H         5.05635867139507    9.51015632974402    5.88131031322743
H         6.65071639298945    9.81046020525253    2.37255747948882

