41
CSD_code = ONOZAU | q = 0 | S = 0 | Stoichiometry = C16H16HgI2N4Se2 | MND = 4
Hg        9.76339362797668    7.69669235563567    9.52859676120340
I         8.53138362132939   10.06083469126767    9.65654390574420
I        12.12890274274636    7.00915774398347    8.61604446555622
N        12.70076757198455    9.61191463793355   11.18478589316102
H        13.14662678726828    8.76044386420324   10.87054780478724
N        11.25658501791256   10.92226373280463   12.18630081903378
N         7.13525389927373    7.87507388663667   12.18792075814426
H         6.77570285672723    8.41354756086146   11.40982755890868
N         8.16841275347844    6.27827271921724   13.27580968685036
Se       10.83506182750198    8.16573641593586   12.70151751352324
Se        7.94845567915759    5.77847388679904   10.47008962882000
C        11.63057038193281    9.64464427627960   12.00103832608801
C        13.00985824824334   10.89169127797534   10.79195579366021
C        12.08501449264178   11.73120768963737   11.43639505714945
C        12.10916902083174   13.10382666499788   11.24761415856526
H        11.39583048650113   13.75086781917909   11.73112900012158
C        13.08161272163834   13.60200006744562   10.40034512173520
H        13.12969536895208   14.66512668909451   10.22342203193433
C        13.99696059789544   12.76723013100726    9.76142543648983
H        14.73353908257542   13.20188299857023    9.10405268449977
C        13.98007382476017   11.39668437275841    9.94318804145252
H        14.67802733945978   10.74519752187275    9.44313469374534
C        10.15502842769382   11.37951498419004   12.98383994777127
H         9.70644375052760   10.52295374337491   13.48688434192449
H         9.40705510555400   11.85486321364661   12.34736033959075
H        10.50795588083910   12.09199653752118   13.73005907219752
C         7.75567592605007    6.68576664592406   12.06510299228720
C         7.19574389665520    8.28362310809500   13.49664074987210
C         7.85406130103609    7.25670347289837   14.19544972757037
C         8.10040231990493    7.35937210024881   15.55605792586601
H         8.61654808202857    6.58182502762072   16.09465998522025
C         7.67201249036864    8.51347456888174   16.18427075999332
H         7.85177661293052    8.63394009264779   17.24123529243156
C         7.02411332752652    9.53307187940673   15.48751203005200
H         6.71736750805150   10.41967414216658   16.02035076119378
C         6.77344097056996    9.44002573622192   14.13135373262490
H         6.28512341088299   10.23054702516473   13.58483609396736
C         8.93783814704210    5.10010469669237   13.55990675846487
H         8.96655811541084    4.47167611216768   12.67031753376119
H         8.48338397862240    4.54849841673997   14.38258171950508
H         9.95837279751935    5.38819749217908   13.82809509461598

