100
CSD_code = ONUFAF | q = 1 | S = 0 | Stoichiometry = C43H49CuN3O2P2(1+) | MND = 4
C        -0.88583364543258   -4.31956492919578    0.87722306840360
H        -0.59826980924445   -5.28312256636904    1.29054461839467
H        -1.08156098602364   -4.44442685465525   -0.18422063812367
H        -1.79671505060526   -3.99097782972189    1.36866260637721
C         1.51963160422957   -3.76582916026904    0.43194880019182
H         1.84334577497734   -4.71026898755456    0.86334017681355
H         2.31866813055876   -3.03844496341323    0.55532477943764
H         1.35676017720082   -3.91607884973508   -0.63186702259100
C         0.22590200098409   -3.29637448058999    1.08975229906689
H        -0.08081357429870   -2.34252673119354    0.64696482584452
C         0.43896921009771   -3.06568261926915    2.59368791449470
H         0.75415078024315   -4.01346327122644    3.04586451374733
C         1.42014377793467   -1.90797948647388    2.92765559493108
H         2.30094845082421   -2.23532753564686    3.48292895309504
H         1.73568415456772   -1.36179881354745    2.03473622375397
C        -0.58850489221832   -1.54897960659644    3.81557076742301
C        -1.60728346850246   -0.85470944761331    4.59906832928981
C        -2.81950524711880   -1.48499994575924    4.88408209462383
H        -3.00172393214294   -2.46627050951384    4.47841776897731
C        -3.73876429341959   -0.82882887273448    5.68535727407317
H        -4.68502594283912   -1.28931213801936    5.92347159598126
C        -3.42014590799878    0.42213292811837    6.19214469699644
H        -4.08811466503858    0.96412376946547    6.84129008843167
C        -2.19557787619408    0.98130573012326    5.84150996144247
C        -1.74566298230372    2.26750951518383    6.34944868894274
C        -1.75832459582729    4.13767281478494    7.53966891765818
H        -1.58729655929912    4.11587915452816    8.61816305510131
H        -2.34944880804245    5.01951572351200    7.28841937352320
C        -0.44548974833639    4.02305049658887    6.72319271986055
H         0.42958285263436    3.95886184681126    7.38140471684743
C        -0.18237267424793    5.14734168388695    5.70399932271345
H         0.70498797574976    4.82947468065016    5.14495112188065
C         0.12731055956263    6.45677937444550    6.42181912128994
H         0.36857750529140    7.22977203818957    5.69724264193930
H         0.97522427375037    6.33840610118175    7.09220796001336
H        -0.72626998147723    6.79386815837418    7.00481517538488
C        -1.33385301594369    5.31398337475871    4.71570598899839
H        -2.22618653066538    5.69921887614667    5.20321386807683
H        -1.57674880185327    4.36109742104442    4.24829870259224
H        -1.05211749018154    6.01980384429397    3.93853835985129
C         0.65155691502032    1.18056780696777    1.53656958194598
C        -0.71900956932998    0.94766017104407    1.58670930876132
H        -1.27610989687628    1.28174234111415    2.45365014151725
C        -1.35317860773010    0.29402881724221    0.54722705178705
H        -2.41671155918438    0.11203179187733    0.58946626987113
C        -0.61825107562979   -0.13337913065387   -0.54839027688612
H        -1.11106970572755   -0.64408671789421   -1.36168053713002
C         0.74857290894650    0.09004433192618   -0.59876854595432
H         1.31996110594137   -0.24917795871407   -1.44975853984140
C         1.38720720049064    0.74250618169995    0.44210625031409
H         2.45501974643564    0.90859554750014    0.40457518130216
C         3.16609674260154    1.76215429724861    2.80116349431888
C         4.02620156288220    2.44231097621708    1.94425502153269
H         3.65597848892363    3.22058576896204    1.29408615431489
C         5.37274270778265    2.12245946851535    1.92269701978905
H         6.03674891569298    2.65207984285209    1.25614876759425
C         5.87175017413126    1.13119208581260    2.75171449892460
H         6.92330442763970    0.88962989167586    2.73079780366613
C         5.02091548071210    0.45573330786152    3.61239409284883
H         5.41190436971506   -0.31101471004045    4.26486888656236
C         3.67663797406794    0.77349248453990    3.63772437238088
H         2.99344591385596    0.26972639743522    4.31211401194780
C         1.20332010443800    3.80150355316778    2.30404921599729
H         1.49177136823265    3.86159144874388    1.25497229551023
H         1.81624981204874    4.47617691328358    2.90000684768894
H         0.15773501635621    4.09140936829849    2.39664869903002
C         0.12994645104569   -0.14990793525519    7.80846984867198
C        -0.60496079486797   -1.33060668860973    7.73373969228501
H        -0.31033098033517   -2.10811087285035    7.04248354943637
C        -1.71477057794302   -1.51377297199138    8.53743870462154
H        -2.27415338913475   -2.43557823875608    8.47725041188269
C        -2.10969508683069   -0.51819292618912    9.41637102303255
H        -2.97633022748726   -0.66270319326391   10.04294539441793
C        -1.38619071193356    0.66056042639584    9.49401221125286
H        -1.68871259703861    1.43418734768803   10.18424538773367
C        -0.27806896260933    0.84861279491422    8.68884194501208
H         0.29087249848559    1.76662872642359    8.75099086693197
C         2.57896487395131    1.26091299792966    7.52383931496837
C         3.02702691837757    0.96238592061044    8.80689462694181
H         2.69234017287416    0.06104292400990    9.30147001063191
C         3.88757985266426    1.82993243124631    9.45371667949947
H         4.23465588660722    1.59881718842614   10.44958287243012
C         4.30482677535824    2.99505151906040    8.82805289988194
H         4.97785500573816    3.66736411177689    9.33792844059527
C         3.85798422941554    3.29780774159505    7.55215998878616
H         4.18283297843452    4.20548164006699    7.06553974098849
C         2.99612848891728    2.43263876222574    6.90196855431277
H         2.63264313206681    2.65309668688972    5.90335363081347
C         2.37943561059269   -1.41854035276536    6.64049200499728
H         3.36571235103573   -1.25251519522895    6.20815685594374
H         1.85443234105814   -2.16546210129360    6.04771953490897
H         2.48554209677797   -1.77488266101133    7.66475651824879
Cu        0.48717155867599    1.43332257449630    4.89987024834290
N        -0.78683378535807   -2.65665094306288    3.23651993263698
N        -1.31965253864176    0.36059551704926    5.04912892360067
N        -0.60278371196878    2.75357790884385    6.04978237060808
O         0.65867069685721   -1.01971322083570    3.74999804429954
O        -2.51148910143696    2.97492246715439    7.18085642904176
P         1.38029976402495    2.08513234317986    2.94166378325230
P         1.44948351180449    0.17307106117753    6.59756346541504

