65
CSD_code = ONUHIQ | q = 0 | S = 0 | Stoichiometry = C37H8CuF15N4 | MND = 4
C         0.66851937977734   -0.56282249461887    4.90700688403278
C        -0.63367435782478   -0.93928681880536    5.22537414816365
C        -1.36869925101333   -1.98979244250709    4.60302792481089
H        -1.01308484294250   -2.60445025854196    3.80031643649132
C        -2.57660336255864   -2.05580389731898    5.21930436245065
H        -3.38587786045364   -2.72160240153831    4.99401693829631
C        -2.59401161513201   -1.05980553897326    6.23740953330296
C        -3.66810655881259   -0.78908802307293    7.08465942769317
C        -3.59165443494764    0.25572365978471    8.00648676031474
C        -4.51712729909514    0.71522329767555    8.98143221447538
H        -5.49528297868827    0.30820757783474    9.14599850950609
C        -3.93130787145771    1.75535365805362    9.65789157373907
H        -4.34889289087268    2.33578040250373   10.45614716069502
C        -2.64599660563147    1.92604949382919    9.10687347288462
C        -1.51555267778536    2.72501820324073    9.29294072483481
C        -1.09238887555084    3.80028229676848   10.09893148280073
H        -1.68181383651297    4.28377345829928   10.85212672197696
C         0.19502702170847    4.09252434974382    9.72502500855744
H         0.82458950565426    4.86266834575054   10.12529517058819
C         0.56267965502517    3.18848464412167    8.69267399118459
C         1.73663230666016    3.07215609100221    7.94733849443735
C         1.83822739598026    2.11390506291569    6.93938154603819
C         2.98865421857126    1.88159999168587    6.13227971580412
H         3.91280773649909    2.41955008819121    6.20527660663377
C         2.69129213258585    0.86963618579893    5.27754198785124
H         3.32376930938178    0.45047491437146    4.52071935043986
C         1.36057023056582    0.44936944639152    5.56667924408602
C         1.35429313598819   -1.28105515946016    3.81044717976135
C         2.47835159605500   -2.06841960043456    4.05182559165134
C         3.12971068437901   -2.74660444689603    3.02680707856297
C         2.65482037193563   -2.64559307714840    1.72192693690184
C         1.53230402515590   -1.86584857526054    1.45645150973152
C         0.89761174957363   -1.19516004057976    2.49662620988916
C         2.86638495270585    3.97206834506624    8.23608421436993
C         3.37270619099612    4.84450332137444    7.27309609312942
C         4.42869457265662    5.70604284124710    7.54945980088198
C         5.00236380188560    5.71188908232642    8.81803530916871
C         4.51105171730701    4.85362196951111    9.79790459777223
C         3.45542801681505    3.99883138585125    9.50006373024537
C        -4.88750759260810   -1.61263444399680    7.02271623458434
C        -4.84896035766542   -2.98539059512941    7.26727107875164
C        -5.99804286936866   -3.76743722469779    7.23322458116517
C        -7.22738624417620   -3.17727189336810    6.95224078068089
C        -7.29208603513987   -1.80831698403241    6.70761600426308
C        -6.13046187955151   -1.04451911368031    6.74531214058003
Cu       -0.84256009409003    1.01992505984372    7.28787764103886
F         2.93848188934081   -2.19048141618070    5.29973116687979
F         4.20235270758725   -3.49428228604027    3.28884051952098
F         3.27056590494596   -3.29136915828164    0.73338692294921
F         1.07332440559361   -1.76262586574515    0.20870042119137
F        -0.16875859904766   -0.43969129584909    2.22099757453686
F         2.81958608477663    4.87637631779268    6.05729098927114
F         4.88902773187256    6.52975779375666    6.60693066337018
F         6.01326131461938    6.53423240761563    9.09268535518771
F         5.05554501617236    4.85164297022457   11.01526722812589
F         3.01500409618033    3.16813495284102   10.44871933091208
F        -3.68452624608437   -3.56832094574175    7.56625759696066
F        -5.92783911112332   -5.07715564500076    7.47494195069239
F        -8.33409673292123   -3.91735695263012    6.91929455788317
F        -8.46528930356990   -1.23551307075061    6.43555564063559
F        -6.21316492583695    0.26295325164731    6.48530503256331
N         0.85740929678060    1.21819341584865    6.57805025796539
N        -0.49991904703329    2.37805941793726    8.45113329833887
N        -2.46713020345389    1.01026321957360    8.11191352393714
N        -1.39424359478364   -0.38587725413769    6.21625586385488

