85
CSD_code = ONUHIP | q = 0 | S = 0 | Stoichiometry = C28H47ClN8Ru | MND = 6
Ru       -4.94767765589681   -4.68681507377444    9.73165647178648
Cl       -3.46130749963290   -5.42479546171848    7.84555933496500
N        -3.27253824152700   -2.04207161755156    9.12067884890853
N        -5.22257200042194   -1.84012683753868    9.99842297710677
N        -2.57543662152466   -6.22699935701572   10.96448752690140
N        -2.70332963464230   -4.32055104503391   11.94698795296034
N        -5.97783320733485   -7.55730553050818    9.17801824326824
N        -5.81552118390317   -7.21996182347801   11.29580160278514
N        -7.77424441375848   -4.79363771682721    8.41394730365112
N        -6.39687665120083   -3.73885334075894    7.15123829467782
C        -4.34577453987895   -2.76830600570322    9.53235291345385
C        -3.49340436652376   -0.70059076028738    9.31697577254817
H        -2.76880547381628    0.04233586466843    9.05064993648721
C        -4.72075622703755   -0.57433938475654    9.86891146388567
H        -5.25098508887403    0.30664201107294   10.16751107078176
C        -2.06847260979435   -2.55133459776218    8.52677624082124
H        -2.11331000397697   -3.63992862371006    8.50532354481583
H        -1.19150982407084   -2.23392124200171    9.09657530292401
H        -1.96381180307509   -2.18784464335360    7.50122480430397
C        -6.46756333951728   -2.27307924165399   10.59496459038201
H        -7.23341869286302   -2.31196215819870    9.80249892324494
C        -6.22771136409522   -3.68489334426724   11.14626086452969
H        -7.21828395917437   -4.11689291392542   11.32333555561563
H        -5.80215291832439   -3.55555246816690   12.15057801042718
C        -6.93560102851726   -1.28672093866418   11.66800312187348
H        -6.14459464124411   -1.11703394523166   12.39675613054396
H        -7.79522376342603   -1.70570014704337   12.18563411410606
H        -7.23232111334404   -0.32980208006947   11.24064164276984
C        -3.33294324659623   -5.08821902562788   11.00003735668350
C        -1.52957893520438   -6.15768062578376   11.84727093781212
H        -0.81875648135362   -6.95223685580552   11.95581198497072
C        -1.60786654517122   -4.96517447453419   12.46553573677024
H        -0.97763238172754   -4.53429696912907   13.21499552036869
C        -2.75218849497008   -7.42029183713097   10.17759375918112
H        -1.77283322055705   -7.85818496159587    9.98201351259135
H        -3.21326795828214   -7.17519355956843    9.22322593228427
H        -3.36417224512579   -8.15662140742181   10.70598173898368
C        -3.09989482422252   -3.02541820908281   12.45373683719836
H        -3.92652509246454   -2.68937142427660   11.82967006537675
C        -1.95591346809433   -2.01567856321211   12.34835128606617
H        -1.17539223484137   -2.22066159670514   13.07787421883055
H        -2.33440379328085   -1.01235109910367   12.52757772287742
H        -1.51693622811570   -2.04689471673793   11.35573584216383
C        -3.57806014966468   -3.14776114613298   13.90279354708129
H        -4.39957008156718   -3.85688582066935   13.97318914711250
H        -3.92176816049148   -2.18083672666584   14.26192339075170
H        -2.77287884126241   -3.48906293584839   14.55008682515608
C        -5.63488955328279   -6.59581389887061   10.08580330587744
C        -6.35162393079964   -8.72084503044973    9.79908545936109
H        -6.64857486368628   -9.59223308144848    9.25100762416316
C        -6.25102390701025   -8.51161957197280   11.12613694846603
H        -6.45065916130074   -9.17245305772803   11.94422967313342
C        -5.99288464515348   -7.44762128536301    7.74544112213869
H        -7.01388911392330   -7.32595462432994    7.37285005856480
H        -5.56604810505943   -8.35045763206494    7.30573710241009
H        -5.38991655386912   -6.59382439807194    7.44018932528085
C        -5.65729967661991   -6.62732900338116   12.60485414143336
H        -5.26525557602507   -5.62322948156929   12.42267996393125
C        -4.66773082702369   -7.41364975746704   13.46597417983812
H        -5.03427871969820   -8.41698900729163   13.67271447795152
H        -4.52565547784960   -6.90219953327114   14.41471731263249
H        -3.70246444141571   -7.49013503601225   12.97510877026208
C        -7.01132281477001   -6.52639076450538   13.31109914199651
H        -7.70993554018499   -5.95303415243156   12.70827327324893
H        -6.89252666340155   -6.02591433100792   14.26838668126429
H        -7.43329568115389   -7.51350009438096   13.48882580487219
C        -6.47172232360923   -4.37841758121740    8.35535342356702
C        -8.46875189565592   -4.41578392669203    7.29151837501075
H        -9.50601087810774   -4.64833013634045    7.15656404675126
C        -7.60311458374967   -3.75547233293849    6.50050378810018
H        -7.75444615022613   -3.30448938902351    5.54202952743527
C        -8.45276597648675   -5.51908335425836    9.45060099215885
H        -7.73263884869357   -5.83288026818421   10.19904945274126
H        -8.94673679494620   -6.39912782939066    9.02928404779711
H        -9.21380765889869   -4.88854742025147    9.91942563945877
C        -5.24663357282927   -3.09038559617043    6.55672530962022
H        -4.41756002686449   -3.23414303901091    7.24904166292186
C        -4.87296770748428   -3.75806490945492    5.23508897506674
H        -4.57670202454419   -4.78652560118847    5.42399679174376
H        -4.02691982144520   -3.23843840552347    4.79342731508190
H        -5.69841904084100   -3.74363690380681    4.52647108110587
C        -5.51635294614531   -1.59592611848186    6.38052344257474
H        -6.27514476746649   -1.41860001434624    5.62063284979753
H        -4.60401837326353   -1.09002075590220    6.07509963456748
H        -5.85529110612292   -1.15786829787682    7.31697135489473

