51
CSD_code = ONUJEO | q = 0 | S = 0 | Stoichiometry = C17H4BBr3CuF18N7 | MND = 4
Cu        0.96137402161557   11.89283509375328    1.57862746484063
Br        5.07931167926740   12.93262795907748   -2.53014170877138
Br       -2.19819157343921   16.82153593509364    1.47179167695452
Br        3.89000483027104   11.42868309623745    6.67662890998055
F         2.11303874306563   10.55986744902502   -1.73921288289115
F         2.01913784247038   12.18028680267738   -3.14700684054488
F         0.50785264632980   11.98225840382259   -1.63433192104748
F         6.42702465665833   14.46217192120080   -0.23564227279279
F         5.74016671060728   14.15740516865591    1.77783726218131
F         5.20532400476306   15.95055571414344    0.71069290709701
F        -2.57729857214504   13.03087304933536    1.19201285127041
F        -3.10133414778779   14.10207942788741    2.97883163716533
F        -1.84904386551677   12.36012740498356    3.09510925746738
F         0.54305213147203   18.11965344230209    1.02286015793958
F         2.19108048804100   16.86636588973504    0.44769561261272
F         2.06777119500543   17.64108995118024    2.45446238926685
F         1.54482028958487    9.50325097082322    4.82624702051063
F         3.57381406024194    9.10298421462633    4.24196196584195
F         2.06981255929537    9.43350614366847    2.74199818666856
F         4.14380533959680   14.46995143951419    6.42797510346056
F         2.83519414183441   15.53662089188382    5.09997117085405
F         4.88730040348616   15.18830100396190    4.54830588518085
N         2.12949914517263   13.11149479090301    0.23112827638276
N         3.04132470240963   13.85038102687889    0.83626599494328
N         0.33606179112463   13.80716346266800    2.39417301330392
N         1.21180932426769   14.77069518686463    2.18250030829714
N         2.53618884244547   12.09098128208656    2.92849877446302
N         2.90783229285235   13.31981844212383    3.24098976484896
N        -0.30826035440268   10.66341891045326    0.98062885697155
C         2.62573319947595   12.71454396465647   -0.93418647372810
C         3.93246401273377   13.20825484573111   -1.08775650455625
C         4.15580466235284   13.93242844086511    0.07980966724954
C         1.82559915052502   11.86476442630503   -1.86529584236705
C         5.38266859118906   14.63438248285558    0.56988667866177
C        -0.88029147998439   14.30849747724606    2.21622102791852
C        -0.78935813332871   15.66346003510405    1.85531810753584
C         0.57941054785510   15.91465760598111    1.84386113345844
C        -2.09777832430804   13.46175284288476    2.37830676199063
C         1.33742410810365   17.14331438109501    1.45328650832992
C         2.79056496903806   11.30340367695796    3.96523610968717
C         3.35250752840484   12.05871966574358    5.00795692440556
C         3.40469834494370   13.35158395432561    4.49546718644367
C         2.49608184249044    9.83757272331184    3.94452082393684
C         3.83002103324471   14.63122512296394    5.14520593606980
C        -1.26107257637099   10.31025274212452    0.44758340320572
C        -2.43455556424505    9.84674460754503   -0.20030769825286
H        -3.15131595513765   10.66662633217759   -0.25598070646123
H        -2.86741341894751    9.01966934230398    0.36195598109483
H        -2.18548238391475    9.51414791976318   -1.20761415023998
B         2.72346170111298   14.45999569761976    2.21993488247599
H         3.37645481618873   15.40121723686789    2.46323142068782

