45
CSD_code = ONUNAN | q = 0 | S = 0 | Stoichiometry = C10H25Cl3N6Zn | MND = 4
Zn        4.96644874147748    0.72840004247455    3.81403749987413
Cl        6.97428668374238    0.73572797791781    2.84368797823092
Cl        3.30765657343746    1.95617494107752    2.68043558934651
Cl        4.39510650853559    0.60878642086017    6.02287507771573
N         3.79847403904705   -1.07631000428068    3.31554209737609
N         3.04668325447680   -1.82337040935354    1.19739948320664
N         5.19114350139466   -2.27509093223664    1.95028724587002
N         2.47592531929276   -0.75308633559848    3.71219690068570
H         2.21037142119556    0.17110856205157    3.34987988340635
N         1.31377196087706   -0.14747501318650    5.63262206159632
N         2.46105290751643   -2.16161729209089    5.57246616856359
C         3.99350570155118   -1.67150874467792    2.16336766851647
C         2.99305850597662   -2.99901544183168    0.36112880403730
H         3.68946716214576   -3.74867437547379    0.72709127303365
H         3.22660161892137   -2.77187464402205   -0.68313991132008
H         1.97997023655097   -3.41040185660352    0.39860876828937
C         2.04285649923157   -0.82119802594460    0.91347073570563
H         1.08305475539206   -1.06226095239231    1.38062730445341
H         1.90009716364479   -0.77482453030849   -0.16731508780493
H         2.37787142263580    0.15869048813407    1.25010473572725
C         5.87732812864004   -2.08899399906412    0.68519732116525
H         5.20153338373446   -1.69626518212650   -0.06731881521363
H         6.29499946780747   -3.03791388201763    0.34402165901019
H         6.69071184857025   -1.37067796551810    0.82096661647736
C         6.10755196132260   -2.52522737577724    3.04372955300901
H         6.86084244495293   -1.73906888013711    3.12098699371333
H         6.60621948637829   -3.47838024394899    2.85535007059592
H         5.56511806510285   -2.57206104441385    3.98238055283761
C         2.15047788381109   -0.97471702889524    5.00166677425800
C         1.16472017540163    1.25362326551908    5.30716904803518
H         1.97746403467283    1.60975180329470    4.67975030695164
H         1.18585792968997    1.82771180758291    6.23325573947164
H         0.21536421348595    1.43172641001554    4.79668942885430
C         0.50562732360926   -0.57592737025516    6.75042132201659
H         0.37457941880670   -1.65446824478737    6.73092402911798
H        -0.47379386285357   -0.10352356731809    6.66178931476782
H         0.94598956353952   -0.27952324593700    7.70419810471709
C         2.95823587345349   -2.23686974104642    6.93199416583615
H         3.11412363930228   -1.23375179674160    7.31828193082564
H         3.93005451786155   -2.73312164866299    6.92249121744256
H         2.28253852700239   -2.80460554562000    7.57549438117810
C         2.71595523790533   -3.33238628561092    4.76651238434565
H         2.20771119984397   -3.24164663324165    3.80944612468350
H         2.31701355180559   -4.19883871756069    5.29844062324549
H         3.78097200908910   -3.49592476222541    4.58818687612168

