100
CSD_code = ONUQAR | q = 0 | S = 0 | Stoichiometry = C40H56FeN2O | MND = 3
Fe        0.95407500135401   16.35076479086850    8.27073299605128
N         0.34325980906583   18.25355102018442    8.09030399511042
N        -0.34220628740153   16.42775445189741    9.77589300457807
C        -0.89318030604900   20.36442809020789    8.04017243580689
H        -0.09550815888337   20.66866817739007    7.36792860108003
H        -0.96253307904208   21.08361983150058    8.85350204009833
H        -1.83073596188908   20.38903750837475    7.48545895716269
C        -0.64921593435698   18.97384188699897    8.57823967365275
C        -1.49496182234597   18.49762353078680    9.58951604130672
C        -1.27571220424116   17.25477933747301   10.20033982621926
C        -2.11954171018638   16.86933243593213   11.39272051769990
H        -3.14911124452820   16.68069185138456   11.08975597102955
H        -2.12339234534397   17.67183381256796   12.12723612691832
H        -1.73419558716876   15.96685230236874   11.86030763499613
C        -2.62849743609793   19.37035800768725   10.06989075367702
H        -3.43088405896564   18.77548291381239   10.49462224890547
H        -3.05397068175019   19.94360641808111    9.25079214408416
H        -2.29486664084518   20.07673726014767   10.83406477801984
C         1.25637356143633   18.81948467161298    7.18409855020693
C         2.32172841853455   19.59765599516238    7.67004972147533
C         3.22269466127602   20.14582132945411    6.77323366309241
H         4.03979688423097   20.74852285217473    7.14343818353120
C         3.08891552314860   19.92702396937946    5.41281635171103
H         3.79949871491260   20.35882191883671    4.72401209503376
C         2.04592662868729   19.15299681080274    4.93765731062294
H         1.94209663911750   18.98246890175461    3.87573022772606
C         1.11774622640882   18.59750378449466    5.80561427128184
C         2.46458605014063   19.80122988560155    9.14804097652355
H         1.73321472057839   20.52404647035516    9.50912597856928
H         3.45864341086974   20.16552844209003    9.39478888791704
H         2.28120858466871   18.85940210871759    9.66688556248455
C        -0.04160176510229   17.80050003820627    5.28718365399310
H        -0.37262759396744   17.08280788161079    6.04097268381525
H         0.23020535146876   17.27077616771259    4.37810098763955
H        -0.87972308420291   18.46117270876141    5.06186313183953
C        -0.14346672141894   15.17171897356936   10.37301103425416
C         0.78087691926860   15.01027279440719   11.41696373905316
C         0.99689794412381   13.74138286386122   11.93274703001103
H         1.71335834208354   13.61233552221500   12.73147965153690
C         0.30011425969254   12.64966351588613   11.44724909307096
H         0.48088955526083   11.66749825035113   11.85780252105157
C        -0.64058833794094   12.81861675717779   10.44544616682257
H        -1.19799321697864   11.96765256252950   10.08185084713845
C        -0.87826335738587   14.06976179423282    9.90167971763359
C         1.47626036963637   16.20554043511796   11.99870696996251
H         1.55869715976452   16.99781634102718   11.25640668764739
H         2.46620958217344   15.93921882378513   12.35953396937253
H         0.90090653508964   16.59308010956935   12.84084360192553
C        -1.91620229103866   14.28626731563257    8.84101996360963
H        -2.76511626642261   14.83208339123444    9.25241599707629
H        -2.27171086915690   13.33800941363195    8.44876472395847
H        -1.50286892929729   14.88571480739676    8.02672241209955
O         1.79453539298729   15.07652228226219    7.33499514336348
C         2.80232755020926   14.30215070370829    6.94619993311011
C         4.15151299858474   14.52669075156420    7.31711946722710
C         5.14242948191625   13.70556268098181    6.79834944983447
H         6.16157283972375   13.89069718596557    7.07885683016847
C         4.87777191693027   12.65888577504895    5.93435480843386
C         3.54869861731302   12.42858989109944    5.60855329747402
H         3.32418433166835   11.60825612107362    4.95036488056633
C         2.51136413896296   13.20367535585906    6.08862234679421
C         4.55345261485095   15.67366341748833    8.24272659985329
C         3.79744467006086   15.57865679658116    9.57295921478520
H         2.71570460495516   15.65201241009750    9.42706509219663
H         4.10732022765432   16.38426398249718   10.23513628434575
H         4.00746874023327   14.62722271507798   10.05711388834878
C         4.23464878045439   16.99551990487685    7.53855950029608
H         4.79576148733963   17.07249112656419    6.60960828306650
H         4.49642995707436   17.83952439220603    8.17145687986896
H         3.17304646445000   17.05803437931729    7.29832073833896
C         6.04905226794368   15.69058632651118    8.59085028317625
H         6.35282060616296   14.77033161805949    9.08442363216600
H         6.24046016230929   16.51616903971782    9.27432779011391
H         6.66388381021245   15.84653410297713    7.70798587715822
C         5.96031313208968   11.76304983548414    5.35108132138675
C         7.36986729060488   12.17528891347649    5.78507771801489
H         7.59559936131566   13.18954801446916    5.46395832560458
H         8.09967392278289   11.50781795703091    5.33025722014094
H         7.48278715934214   12.10893388253435    6.86464682280039
C         5.89853661132318   11.83030264907587    3.81844614850664
H         4.94273074795210   11.47407144590465    3.44490996288385
H         6.68430870307646   11.21674375948089    3.38170106892722
H         6.03364587605629   12.85655100057869    3.48324592528316
C         5.72215621459102   10.31929517954374    5.81569313140966
H         5.75076405947974   10.26612323717317    6.90207593876780
H         6.49209132500681    9.66188067106784    5.41607898437104
H         4.75487131985105    9.95281603615962    5.48346526077731
C         1.07028023531365   12.84050589649935    5.73590308220454
C         0.35587768275864   12.45278511193512    7.03629414394372
H         0.83287801995268   11.57897343705074    7.47682601634710
H        -0.68761620680991   12.21622889876860    6.83865699529477
H         0.40556145037548   13.26527670695764    7.75434754739172
C         0.35890325194519   14.01975242403743    5.05961969849845
H         0.32260399060834   14.87730855236950    5.72358159206239
H        -0.65928006316643   13.74098714202339    4.79302970329280
H         0.89047009143434   14.30388248828470    4.15327577302955
C         0.95827606137557   11.64675468686292    4.77813830545959
H         1.44003809087996   11.85556975100100    3.82534967331868
H        -0.09492900199885   11.45061619663794    4.58331402678575
H         1.38659405074331   10.74493392998579    5.20944128253608

