54
CSD_code = OPABIR | q = 0 | S = 0 | Stoichiometry = C19H24ClO6PSi2W | MND = 6
C         2.66163520449622    4.84337844339740    1.12697048619998
C         2.12058839993768    5.41819312780264   -0.10725792269536
C         1.06112491261271    6.32269152422347   -0.08168429124111
H         0.63854585258560    6.62775071278019    0.86685818372507
C         0.57837866871851    6.85496212939900   -1.26120000233969
H        -0.23733599120371    7.56135397505836   -1.23633903982671
C         1.13868188033209    6.48048973768497   -2.47324800019143
H         0.75320792689756    6.89237291149772   -3.39383676929286
C         2.19514950297856    5.58261915260062   -2.50589799871663
H         2.63204718520695    5.29606678478090   -3.45061895753227
C         2.69186899940027    5.05756112262382   -1.32955108816473
H         3.51387171441573    4.35757185089204   -1.33365211143566
C         2.46371085449894    3.41268439288318    3.50595123673616
H         2.01894017349458    3.43215512022531    4.50711871143024
C         4.49030144968878    5.93934743430056    3.53494811028714
H         3.53657422453652    6.43408347174551    3.35741169583095
H         5.13281499253943    6.16549245531858    2.69017531839271
H         4.93409497942769    6.39119939091621    4.41645356687488
C         5.67833849930766    3.09778962519238    2.86647588018551
H         6.32594511092207    2.61478978845079    3.58971975470206
H         6.28735652603500    3.78037288049555    2.28507153124567
H         5.30833346036247    2.34074393332346    2.18696218262853
C         4.56016397675372    3.70475083981436    5.62932007018546
H         5.56896446576042    3.98210901490723    5.91781742434863
H         4.43563722362822    2.65220524300274    5.86272317904640
H         3.88005391294784    4.26197368578840    6.26542409254030
C         2.62845089758236    1.41973861407645    1.02539522008523
H         3.56215196065574    1.90406323305235    0.75923194050112
H         1.84716565360533    1.85443081332058    0.40890558951128
H         2.71207065931358    0.37105489725328    0.75761720055580
C         3.41939826722822    0.50078635591597    3.91255709772460
H         3.15771478945818    0.52973642825232    4.96547934848218
H         4.45793538525778    0.79321418104822    3.82221584482511
H         3.33637576483152   -0.53120759561980    3.58783039119634
C         0.47464553101343    0.99153000548937    3.28149389145635
H         0.50312876004089   -0.00274992704890    3.71670403182101
H        -0.14955061949603    0.93979702812016    2.39515100222788
H        -0.02718772918923    1.64139651645890    3.99284742722330
C        -0.62339621823754    7.66951978292063    5.09681354418936
C        -0.51953693509276    4.82986344797304    4.79141791776748
C         1.78167242929146    6.33091941969804    5.38672228403602
C         1.32490764711620    7.93877996279367    3.08556486642003
C        -1.10728036741790    6.50878936768598    2.63330882583190
Cl        0.06542412092028    3.71996176060861    1.63477146667559
O         3.79488101383287    4.43083408676751    1.22762449010575
O        -1.21452501495550    8.39043456234872    5.75693140038076
O        -1.01435862223443    3.90593264853645    5.24631962851381
O         2.49703935404679    6.34007577541157    6.27537863077977
O         1.85012494969960    8.82180015846531    2.58503075635024
O        -2.01968178597529    6.58986959533784    1.95169112739342
P         1.52617306556692    4.66837132192502    2.60677481307084
Si        4.28879098706595    4.05096023293207    3.76370090059027
Si        2.24688248897890    1.59686447967475    2.88511899613053
W         0.38838946079823    6.40012409752835    3.95608612321991

