83
CSD_code = OPACOY | q = 0 | S = 0 | Stoichiometry = C36H40N6Zn | MND = 4
Zn        7.35323398686405    4.92470245301093    3.51712322358580
N         6.43968904697813    3.65519784782009    2.32841994002631
N         8.44644188562127    6.20719165561119    2.47530676258114
N         8.66647350988283    2.66150078062594   -0.37543673763078
C         5.94040730031982    1.36848476186764    1.54921648229606
H         4.85534473209047    1.46725064651778    1.57096281822264
H         6.19037781148322    0.35200249035798    1.83796295481198
H         6.28581784397571    1.52557165016854    0.52840437604251
C         6.59435647065925    2.36041550354912    2.48897425434649
C         7.35056852948290    1.78993061683811    3.51657539026991
H         7.34944675580428    0.70943177393569    3.51657522723287
C         4.66470856912227    5.19504059366407    1.67659454196049
C         3.40900485338768    4.79134708047978    2.11715162893712
H         3.14508391432395    3.74220869596741    2.09463188887441
C         2.48496128050070    5.71842571086680    2.56554526491802
H         1.51501163272909    5.38972583086255    2.91118798395771
C         2.80063185477662    7.06688627835714    2.56331355417885
H         2.07759671028285    7.79211857124212    2.90891808728580
C         4.03893743905072    7.48045845827666    2.10303316939522
H         4.28539004625883    8.53178920303670    2.08305230894364
C         4.96513522621733    6.54999939813860    1.66531193403907
H         5.92650222448559    6.87864869964142    1.30187353899541
C         5.66994550385118    4.17742503732544    1.20885917676885
H         5.14551268443447    3.39185558864145    0.66092508472321
H         6.36961430891559    4.66221708757177    0.51884320001358
C         9.20129023033078    8.48274298757170    1.94954970104867
H         9.00101457543266    8.46607205191783    0.87768073002700
H        10.24946611097336    8.22946806124251    2.09978925273673
H         9.03505277582313    9.49440708855605    2.30730284178441
C         8.30897825256814    7.50171589668746    2.67523855127081
C         7.35336466455104    8.07344659680874    3.51618116095621
H         7.35349772848028    9.15426188000144    3.51594690806197
C         9.36939508103117    4.33039905271643    1.19262175935620
C         8.77968565408204    3.92315115659316   -0.00039297629314
H         8.39302372726145    4.65089857277408   -0.70512104561257
C         9.15303547949269    1.72876927533460    0.42505255796651
H         9.03739349279369    0.70996005575086    0.07785548809641
C         9.78763185173917    2.01373906295318    1.62350968953772
H        10.19318581393826    1.22068915617545    2.23223085986495
C         9.90118268484175    3.33893927282552    2.00723487632755
H        10.41227220602270    3.61444289627328    2.91591029931179
C         9.48416098506246    5.78268168385062    1.54780975858345
H        10.47165078899729    5.95634493111967    2.00179137738613
H         9.42892357213958    6.36462301186316    0.61769845080901
N         8.26572212305775    3.65327081647758    4.70475539302251
N         6.25980427216505    6.20790998343081    4.55783834677442
N         6.03802798804937    2.66356604402979    7.41012276885524
C         8.76012708381031    1.36545978314256    5.48365035969943
H         9.84548572697102    1.46074852416615    5.46024863429256
H         8.50655372082948    0.34957268410643    5.19595025459450
H         8.41672577230150    1.52437120927095    6.50484536027171
C         8.10808412347194    2.35881500072259    4.54407759806623
C        10.03952523415967    5.19413043223390    5.35741357589380
C        11.29599767751618    4.79421202404299    4.91559367296681
H        11.56254667761074    3.74569919837022    4.93645168322675
C        12.21752048533098    5.72421828541019    4.46810529016922
H        13.18809926792573    5.39840772206525    4.12148464968110
C        11.89851302109459    7.07188685285420    4.47252694551007
H        12.61957583636472    7.79941618255256    4.12762661436632
C        10.65946128160113    7.48171265992500    4.93413737222188
H        10.41043870625395    8.53239909857435    4.95577748278130
C         9.73580340382860    6.54833091176372    5.37101413142667
H         8.77393018475960    6.87408580093314    5.73568977292343
C         9.03729928960841    4.17313863466703    5.82418494049243
H         9.56486937249102    3.38662970530011    6.36776384627096
H         8.33859276649916    4.65400587057077    6.51798175219863
C         5.50553811658214    8.48387793116640    5.08263308733318
H         5.70592521278751    8.46766566825920    6.15449043613359
H         4.45728649954589    8.23076978330323    4.93264390059375
H         5.67197129681166    9.49533857980165    4.72439381843507
C         6.39760004578748    7.50232103379113    4.35734934855837
C         5.33594901141368    4.33195145817410    5.84113862202274
C         5.92568442947217    3.92504984144734    7.03426404440290
H         6.31300231164704    4.65301727391090    7.73841272829664
C         5.55058143166378    1.73067020796478    6.61035772341083
H         5.66546022730957    0.71201422109194    6.95825508119959
C         4.91603734316433    2.01531473051427    5.41179250913739
H         4.50981961935003    1.22217080886224    4.80363855880065
C         4.80335362422654    3.34034854850866    5.02723486528458
H         4.29230628282591    3.61562401093213    4.11845514615385
C         5.22177171097060    5.78410603967121    5.48528718701475
H         4.23442899805630    5.95787867600806    5.03102270394520
H         5.27698002562254    6.36641465659283    6.41517349756802

