57
CSD_code = OPADEP | q = 0 | S = 0 | Stoichiometry = C20H28I2N6Pt | MND = 4
Pt        2.79003204746887    7.51406201636622    3.90519541812090
I         1.70074336864555    8.77046227998322    1.86660703179923
C         4.07601612561528    6.76285292841614    2.58611758182830
N         5.20448603645180    7.28238520292129    2.10613925442487
I         1.05475034264301    8.32067252794775    5.70920338161937
C         3.67004662703759    6.49241148275897    5.36754363088560
N         5.78878992688467    6.47674746373720    1.19807591908540
N         3.94263620776582    5.57555275940588    1.94348824820431
C         5.01148571322313    5.44952224733580    1.10968029457491
H         5.18541180079237    4.61467236633068    0.46411286638240
N         4.62825349685748    6.87767373371825    6.20929489065981
C         4.20484995323996    4.90480562829679    6.77179263574139
H         4.21202852472170    3.96413829521025    7.28077615352956
C         2.36778494281514    4.38422246324770    5.12798271148668
H         1.69572189781436    5.05015244746814    4.57420671657755
H         1.79204975847606    3.91548599096643    5.93147930522360
N         4.96819805539868    5.90170368676314    7.07262310955301
N         3.38838756115919    5.21590280589798    5.72803143153883
C         2.97643347758526    3.31157220808002    4.25414197160092
C         3.36445743662608    2.12998786610542    4.88094047391878
H         3.18714441759812    2.01556966928129    5.94059449104002
C         3.95713912254722    1.09821094869415    4.18024069799541
H         4.24932988043615    0.19477362078299    4.69259879922890
C         4.16058002251672    1.22964741730036    2.81781583254650
H         4.61337323197176    0.43013957277865    2.25231482162482
C         3.76739441258286    2.39041045627999    2.18159120255671
H         3.90719159863449    2.48132887034739    1.11404676896126
C         3.18214139550832    3.44436740184575    2.87895940834733
C         2.81763493033066    4.67567355684607    2.08204031017849
H         2.49528535755125    4.37669870242039    1.08016607405294
H         2.00413231580779    5.24997325143501    2.54172412704719
C         5.72814755723545    8.59592867934255    2.37344384753206
H         6.75584992635687    8.50153421098079    2.73654032933403
H         5.10140898762573    9.04001134330040    3.15659921815045
C         5.68620701548400    9.46059335844908    1.11432808164323
H         6.27732697492637    8.97599716464951    0.33489461703128
H         4.65400874172782    9.53107926351417    0.76569252945407
C         6.22313751584513   10.86228367599891    1.38483232622678
H         5.62641648027645   11.33111981870223    2.16978089054499
H         7.25431335317559   10.79671640543192    1.74104650042124
C         6.16846551231584   11.72333203550545    0.12978942246038
H         6.54857306297134   12.72079185342910    0.33529622418094
H         5.14393169465314   11.81111846359496   -0.22300674436986
H         6.76860475701245   11.28237819711804   -0.66302051721798
C         5.24278398062330    8.18019524779321    6.27342933470956
H         4.61554799872504    8.85725938209166    5.67923202257523
H         6.24005277446153    8.12312630264296    5.82269627617846
C         5.34653696153170    8.67561153171504    7.71322339816264
H         5.93218974075791    9.59649586814691    7.71268677372083
H         5.88342942750599    7.92842850608476    8.30059266982075
C         3.97998118159170    8.94013306809969    8.34072401106537
H         3.39223387459637    8.02041002759480    8.34748237301482
H         3.43674594482692    9.67280984790612    7.74188535182204
C         4.11552941934887    9.45511358082129    9.76666912184811
H         3.13365732661864    9.63714874294193   10.19468797631993
H         4.67677937609469   10.38682862234405    9.78513055567565
H         4.63443042700093    8.72877493283403   10.38881784936078

