69
CSD_code = OPADIT | q = 0 | S = 0 | Stoichiometry = C24H28F6N6O4Pt | MND = 4
Pt       12.04891667225043    3.54244866834157    2.86659358710226
O        13.39293834713515    4.55367104578144    4.12933227829385
C        13.29954469676281    3.94340069441078    1.38330622600897
N        14.57183275364338    3.53831858272994    1.33354904540654
C        10.71613962538854    2.44497888515610    1.88558919744580
O        12.80647490364887    6.33221624225639    2.93817195981613
N        15.27423965234527    4.18031586536306    0.39051029046122
C        14.43591805919659    5.00743529911008   -0.14642418146365
H        14.68899660910635    5.69706061674191   -0.92438966057273
O        10.86210803709522    3.28396234450930    4.58554520451891
N        13.20967209755833    4.89676525360972    0.42683929924254
N        10.53071578704266    1.13740603932964    2.10189400910914
O         9.66137303937688    4.81619997547295    3.52122391671762
C         8.94672182179072    1.68527182686140    0.85307409768472
H         8.05582848640307    1.65086395126797    0.26145208401531
N         9.45106595858375    0.66377348783855    1.46448925080205
C         9.41186849820073    4.12625968130744    0.56302581201344
H         9.75318106145221    4.84497430934685    1.30875753331611
H         8.32762280557855    4.22364528696800    0.46568840220892
N         9.68640855696091    2.80259215703584    1.07972780602094
C        10.05468576733657    4.31518164960807   -0.79159443946857
C         9.41572128340608    3.74002957276989   -1.88755813655876
H         8.48777803162728    3.20809792651873   -1.73633644185501
C         9.93380487490490    3.84111229603143   -3.16364678448574
H         9.41866321237576    3.38519001641296   -3.99487206842365
C        11.11049325169383    4.54112969624813   -3.36617794254557
H        11.52468500902222    4.63851829316918   -4.35770691224549
C        11.74675561532559    5.12544951326805   -2.28872507448700
H        12.65586233407883    5.68485876270888   -2.45320645592139
C        11.24125319220421    5.01889351346229   -0.99511831271366
C        12.03075585207948    5.67386098633647    0.11431271669964
H        12.36087981437384    6.66520186827250   -0.20482913262962
H        11.46739135546576    5.78716905719090    1.04131970087718
C        15.17168996787786    2.51464633998024    2.14776929044937
H        14.74675115253845    2.59188155068793    3.15405637883811
H        16.24352871731972    2.71431438410581    2.18702005620740
C        14.89730958641788    1.12886808493932    1.56022533594978
H        13.82192514547659    1.03418896207267    1.38482858531710
H        15.40842803664543    1.03654397444736    0.59972450583378
C        15.36528731425735    0.02247150292553    2.50151751614554
H        16.43010787638892    0.14854634700670    2.70360149970789
H        14.83374711698605    0.10914266891324    3.45035943891085
C        15.12654639859992   -1.35945205393759    1.90626486427304
H        15.45826350826073   -2.13204477366803    2.59453672824264
H        15.67441794278590   -1.47378246181333    0.97397793539555
H        14.06962760734021   -1.51500109633143    1.70161403440614
C        11.32565643224123    0.27655176488177    2.94452258679538
H        12.00905058343405    0.92448712702309    3.50608024967165
H        11.89873265777791   -0.40343421475607    2.30612249015658
C        10.44493771296001   -0.53068004545919    3.89698845931158
H         9.74417567714478   -1.12731261810291    3.31020296807901
H        11.09041621044398   -1.21095692970221    4.45485635589507
C         9.67484129812923    0.35503621253824    4.87343085407413
H         8.96790351515801    0.97869517770604    4.32177360536384
H        10.37039274450530    1.01817392520579    5.39025619490722
C         8.90948006207864   -0.47382490092443    5.89581531125791
H         8.36802037824197    0.17793626370817    6.57555638262343
H         9.59225255433096   -1.08723286989545    6.47943130875292
H         8.19401434347097   -1.12788615215843    5.40181013459174
C        13.37753410579435    5.77702959111424    3.86017258997058
C         9.91478672576976    4.09230934130199    4.47221242907067
F        13.96032726359338    6.48705227578388    6.09943820656579
F        14.25504379087547    7.93013428546259    4.52604618204179
F        15.57326252409545    6.23480519318610    4.68944088717036
C        14.28607849518339    6.62406348807686    4.80879938237395
C         8.89724857808771    4.07074194917642    5.65635561741035
F         7.79868801967895    3.37206618235272    5.28983741151504
F         9.37209413983260    3.47586247771670    6.75578591986898
F         8.47743475285978    5.28850568099800    6.00755142846895

