44
CSD_code = OPAFAN | q = 1 | S = 0 | Stoichiometry = C16H22ClN4Ru(1+) | MND = 9
Ru        4.29869207957748    5.57900343399876   10.28378707200894
Cl        2.55918619910665    4.16185496866095    9.53974815335294
N         5.20040631516599    3.89346343218920   11.03264379258478
N         4.70028930836364    2.65936613112925   10.91868807774234
H         3.80669942153907    2.53866983881087   10.43537821506172
C         5.49816816841073    1.75794600634200   11.50590359212528
H         5.26294869422634    0.71351822404643   11.52521079828997
C         6.57626481739055    2.44477527539744   12.02251004258337
H         7.41112994950705    2.04458701692069   12.55752930683439
C         6.34506984483139    3.78147249431826   11.69751926392917
H         6.95931517140599    4.63559277807263   11.90981990647460
N         5.28398860055872    5.07106288135358    8.56251875134296
N         4.72077068343655    4.43842164771567    7.53060600944725
H         3.76057937297377    4.10250207225343    7.63056290080372
C         5.58371944694427    4.30737705434000    6.51453356327445
H         5.31681383370154    3.82668575528658    5.59571059889893
C         6.76877745073511    4.89105556353034    6.91013881380829
H         7.67623679775927    4.97287529337172    6.35039599836702
C         6.53135060235780    5.35417020120213    8.20457721650884
H         7.20670484174552    5.85523500806833    8.87204023702710
C         3.84171285673201    6.60898030741980   12.29665902628330
C         2.75837297025914    6.80593458668697   11.42591336430677
H         1.75362853201063    6.55472363354326   11.74669086933380
C         2.94008201878278    7.40180083502419   10.14979602795510
H         2.07254884969615    7.60213059014474    9.52885146107097
C         4.21125719003405    7.81808668110238    9.72278320843825
C         5.31401792667172    7.62680739434725   10.60677979890280
H         6.28563110029469    8.02011219523712   10.33006773841383
C         5.13096444710887    7.03718371208600   11.86040189336841
H         5.96500650405882    6.97620959261820   12.55143615531634
C         3.65415914993792    6.06317507813334   13.69183616326940
H         4.63690398141175    5.76562749593495   14.07606855304401
C         2.74105021408186    4.83560269772543   13.71061128972015
H         2.79719360576642    4.34988706225068   14.68057256347222
H         3.04553172208924    4.11851725983162   12.94733553221013
H         1.70422899445824    5.11001068170566   13.53531465607530
C         3.09925249793896    7.17335332982419   14.59195056988088
H         2.12270497987283    7.50020345529485   14.24232052962681
H         3.76729477322384    8.03171457063553   14.60467249489527
H         2.99454163627787    6.80351827510843   15.60790473022702
C         4.39842515885056    8.54331143964087    8.42665068841070
H         3.60908970091649    8.29904679596375    7.71917592054676
H         5.36259376950539    8.31194825868473    7.97740631750948
H         4.36509582028242    9.61837899404674    8.61087813725528

