21
CSD_code = OPAGIW | q = 0 | S = 0 | Stoichiometry = C8H8HgN4 | MND = 2
Hg        4.79611842822570    4.38062834496866    7.37848546649513
C         2.69218248349685    1.33848895380773    7.08055471711671
N         3.14781266278692    1.69359440798090    9.12350127900513
C         7.33495396985252    8.49925415795260    6.05554740650914
H         7.87960274730320    9.38680662433101    5.76937994027988
N         3.44822059311051    2.43693778542715    7.11047765262503
C         6.24212103133168    8.59523297955348    6.89798492109179
H         5.92768167821118    9.55759169962112    7.27412133021743
C         7.03112362982215    6.11702560515155    5.94885541050860
H         7.36055127278398    5.15898348159568    5.56491396487345
C         2.13710349773555    0.71624468638635    5.85952420955588
H         2.43768244610419    1.28697197315660    4.98447827106733
H         1.05088527027444    0.68729591558513    5.92257137188118
H         2.49746612480739   -0.30684088158825    5.77124679951193
C         5.54060397834600    7.45770103444075    7.26943356212754
H         4.69017694188284    7.56131499147909    7.93270095933288
N         2.51463325976507    0.88977845833145    8.32387853341434
C         5.93035159675194    6.20796991201863    6.79608284846381
C         7.72734919335221    7.25977948061924    5.58341123142684
H         8.57999580748626    7.17288323184169    4.92648787362530
N         3.71468338656307    2.62505715734215    8.43446225087038

