88
CSD_code = OPAKUM | q = 0 | S = 0 | Stoichiometry = C37H47N3Ni | MND = 3
Ni        1.38625518759849    3.49687244524610    0.37981544878206
N         1.78712335982071    2.30700688901634    1.72267709154001
N         1.48564930824080    4.70180104077144   -2.27182513785876
N        -0.47331780213418    4.97837734084724   -1.45524057803577
C         0.63500284362004    4.57405947907805    1.83867907835004
H         1.50438229409486    4.84228285305197    2.45642174365102
H         0.20942979269557    5.49396581145236    1.41669853636971
C        -0.41838099239525    3.91271100243855    2.71815715219147
H        -0.54834854254955    4.53730049263890    3.61344244602294
H        -1.38691190271030    3.90760450806664    2.20381632665473
C        -0.08102154164900    2.52226497887906    3.17458396153031
H        -0.72693981898316    2.08606896383082    3.92166821990155
C         0.93864195430418    1.81820008507535    2.67041752620832
H         1.12459079751741    0.81561453925393    3.04462410579523
C         0.76780376911238    4.54135916418565   -1.13607175513771
C         0.71479967906025    5.22476099624121   -3.27740647182524
H         1.10896011864226    5.42128546957832   -4.25338306974079
C        -0.52135583879482    5.40000447194828   -2.76102912892342
H        -1.42116402914305    5.77336045557492   -3.20471902434616
C         2.95932835152048    1.72196143837882    1.35760882667942
C         3.86330046345316    2.52102083727341    0.61842197534816
H         3.59327377394712    3.56826872633064    0.42902731262936
C         5.07455739070994    2.03157522105632    0.19056748177150
H         5.74884064437201    2.67463645485592   -0.35816581669432
C         5.44138575401290    0.72400357623356    0.47760185635115
H         6.39425342070598    0.33740294611175    0.14719383817992
C         4.57506606115341   -0.07353373386773    1.21053644853317
H         4.85672271320859   -1.09147777006535    1.44578524904940
C         3.35814903296287    0.40327922607599    1.64758583094985
H         2.70832904177864   -0.24820258143255    2.21332686647061
C         2.86365529670301    4.38447327672488   -2.43384242195757
C         3.21283769179628    3.11630002312208   -2.90537167909706
C         4.56000511670874    2.83755430314708   -3.08371129990416
H         4.86752931609561    1.86485522804598   -3.43085242544958
C         5.51919521660582    3.79401056719723   -2.80856502799867
H         6.56390580652960    3.56051948323539   -2.95320546430936
C         5.15430255982636    5.04176489524469   -2.33956310210305
H         5.91915418274703    5.76827152219911   -2.11716732519745
C         3.81768422945035    5.36433080811484   -2.14995601866103
C         2.14383437096343    2.07640239952867   -3.15141772096439
H         1.21442988074391    2.58790480383541   -3.42999277660422
C         1.89836941807909    1.30360986125974   -1.85310933504144
H         2.80235628610253    0.78494473786569   -1.54038463763765
H         1.10076880915750    0.57492548845108   -1.98404332812358
H         1.60808093961848    1.99277405917406   -1.04433794534604
C         2.49179795130676    1.11195557383789   -4.28470098337108
H         2.80483584588431    1.65636095079761   -5.17338705333380
H         1.61826436011075    0.51438683820786   -4.53740131218836
H         3.28684951807016    0.43121842499255   -3.99183312325344
C         3.39422750612567    6.70777967709458   -1.60303273107914
H         2.36967627396396    6.91280674695447   -1.93361392280692
C         3.39641063626079    6.64690263169382   -0.07222190311816
H         2.72168359691840    5.86193218096637    0.28021838332467
H         3.06586154627236    7.59548764027656    0.34455774346575
H         4.39759223819681    6.43352080980556    0.29568450268163
C         4.27321270841593    7.85620318853145   -2.09817354523459
H         5.26191258003092    7.81942681086392   -1.64871872258973
H         3.81966647089690    8.80673562371300   -1.82575609533676
H         4.37962071400723    7.82266424937803   -3.18064380349691
C        -1.61973014108676    5.05445731052004   -0.61491321086787
C        -2.09077725428090    6.31984644291898   -0.25603037066288
C        -3.28085992499348    6.40225316620879    0.45559053475529
H        -3.66664503456361    7.36803027162653    0.74234127392434
C        -3.98021832929139    5.26243800703740    0.79477937931292
H        -4.91320680330724    5.34159948897752    1.33259101274704
C        -3.47978400301944    4.01615495646121    0.46594720086534
H        -4.02798307605293    3.13752498470816    0.76249899440269
C        -2.28542423031078    3.88351417476063   -0.22837359694171
C        -1.33345813903955    7.58519741774843   -0.59314512520582
H        -0.40224743676906    7.32586459896735   -1.10497385622034
C        -0.95309894584673    8.33870852159097    0.68387771344515
H        -1.83615114009955    8.67565288816480    1.21972345357441
H        -0.35111899729745    9.20983243340619    0.43450470570310
H        -0.37455185951178    7.69660204828994    1.34398201122404
C        -2.15428756357781    8.48300726845661   -1.52232795245948
H        -2.42402369875158    7.95492398105249   -2.43457153070563
H        -1.57897000871665    9.36529646385723   -1.79403569472535
H        -3.07002140063380    8.80841944757487   -1.03570751153766
C        -1.70317150331778    2.52614778091815   -0.55247866492202
H        -0.61694239894564    2.58778285776991   -0.34158060955244
C        -1.92636003156515    2.18657575980728   -2.02936894086603
H        -2.99361058660850    2.14281962870468   -2.24189630983030
H        -1.49224947029690    1.21653893533914   -2.26103251616470
H        -1.48026716034126    2.92675433156957   -2.68912666291885
C        -2.24371535231878    1.39690197640845    0.32060361091054
H        -2.14032580719841    1.64414247325771    1.37342441780571
H        -1.66796434344462    0.49323063861219    0.13248065431694
H        -3.28656171059544    1.18062361291374    0.09664432489824

