92
CSD_code = OPALAT | q = 0 | S = 0 | Stoichiometry = C35H52N4Ni | MND = 4
Ni       12.21757914357912    6.54972898320791    3.60967899739170
N        11.84063920743900    6.35927710056076    1.76239002154522
N        12.52770901016858    8.69418622035646    3.08725403179630
N        13.26081396429316    7.19530882210362    6.44430629993320
N        11.44808979535249    6.04008603441257    6.44082254679694
C        12.33272900897642    4.58602615105381    3.58164564253398
H        13.21267158048154    4.33954330283624    2.96640421406131
H        12.52236640129657    4.21968569723002    4.59802073778577
C        11.14104921502066    3.82446085819824    3.00458441392136
H        11.33475035466008    2.74564179879284    3.10657198787004
H        10.23159180166490    4.03460020602341    3.58362296397218
C        10.93414995902331    4.14553692981349    1.55481954075448
H        10.44617903592957    3.41203266947771    0.93269263114151
C        11.30212169735283    5.33140473985264    1.05533079175947
H        11.14678499522849    5.52074047594522   -0.00784747253759
C        12.33939966477748    6.63715390694390    5.60161082915259
C        12.93186902888464    6.94911988975260    7.75848554899437
H        13.55280801503062    7.26834856788650    8.56799022121355
C        11.79240993537022    6.23354696294315    7.75402589919242
H        11.19523729676570    5.86135711499646    8.55967158889709
C        12.35778508109699    7.45897021860957    0.98687478989648
H        11.89792866062537    7.48070981985138   -0.01342563671604
H        13.44943673294271    7.38931851967898    0.83088557287111
C        12.02012131601028    8.76109960709158    1.71201605428930
H        12.42828473224817    9.63744142924250    1.18252344664997
H        10.93162348646892    8.85151416127789    1.74550424469130
C        11.84834502809058    9.68940426977499    3.90719677054863
H        10.77405828267085    9.52224736647781    3.88591121667919
H        12.04897726716734   10.71072321120927    3.54745173073186
H        12.18745906988974    9.60692056182162    4.93723218035360
C        13.95459367656251    9.00658497979341    3.06976099912948
H        14.33858933833855    9.07629543756881    4.08331873960794
H        14.14122731702001    9.96754529596989    2.56431963615515
H        14.50482832351030    8.22789864753354    2.54598150475984
C        14.47859612516577    7.89127254387309    6.19272437928006
C        15.52794864194590    7.25644897628265    5.50535099663862
C        16.75174714491390    7.90393948585544    5.42247597579580
H        17.57348186389101    7.42762018174360    4.91472875085073
C        16.94527077127231    9.14850004441758    5.99068765789029
H        17.90869277708723    9.63124284470059    5.92331995564918
C        15.90158724370364    9.77393303246515    6.63888356618290
H        16.05547474702222   10.75125044629942    7.06822954749182
C        14.65750716854748    9.16427696072987    6.75608964647672
C        15.32521615976720    5.90186768606997    4.87393176646999
H        14.33008308360289    5.91250712688935    4.39709551615916
C        16.33313667553101    5.56963339494360    3.77616263865030
H        16.40260312002879    6.37926373269766    3.05346231123144
H        16.00208060818111    4.67669075468893    3.25114809150652
H        17.32318412672199    5.37019407609838    4.18245207728896
C        15.35955416844034    4.80856277344868    5.94628835772312
H        16.34778398726676    4.76147833844017    6.40219713406408
H        15.13711388073560    3.84324691491062    5.49878515565770
H        14.63364175349732    4.99602764995064    6.73349348287636
C        13.55913867825055    9.93292890817290    7.46302212880771
H        12.61115619111112    9.39543769039853    7.35748654258304
C        13.38422134910776   11.32882242822473    6.84987131357543
H        14.18957373452530   11.99147856845506    7.15575253921592
H        12.44580534807294   11.76497197215882    7.18548409500223
H        13.37709315232886   11.28697679254531    5.76428776976778
C        13.86271852937553   10.08868428646995    8.95702447667460
H        13.95483436265792    9.12734111894584    9.45584179210463
H        13.06285259334883   10.64596883340841    9.43975905458719
H        14.79437249551998   10.63045839482713    9.10133372493851
C        10.34078829174680    5.19837093933189    6.13453809648976
C         9.17304464124343    5.74128652130792    5.59522515209908
C         8.09155821173341    4.89954110257199    5.36772376916842
H         7.18882271097660    5.29799386384356    4.93237692288866
C         8.15233302134202    3.56038481406906    5.69189991894276
H         7.30284916283253    2.91912843872120    5.50985292697651
C         9.30213149743829    3.04259026231129    6.25416236726055
H         9.33642138395901    1.99637676185702    6.51396509406256
C        10.41232020249307    3.84199607560982    6.48732684823768
C         9.06156387401324    7.19928902606136    5.22770418150886
H         9.93031121696910    7.73603384659222    5.62203505544284
C         9.08240367246624    7.30735352219743    3.70285294796921
H        10.05828274569858    6.94953966063790    3.33260887728971
H         8.92168581345452    8.33649195645340    3.38579056859355
H         8.30737530425568    6.68758703771376    3.25892134001193
C         7.80771132733775    7.84481917625525    5.82259304073939
H         6.90355921383028    7.44789534185652    5.36918038655806
H         7.82659228722529    8.91899655569650    5.64808278153757
H         7.75866375713830    7.67199941691693    6.89630389591827
C        11.63279838768893    3.21336554197299    7.12570859525469
H        12.45851141687350    3.92998408419395    7.11660791126430
C        12.09784224480754    1.96856543530387    6.36472655196574
H        11.38790402567918    1.15298420907812    6.47149690756474
H        13.05617086425636    1.63562360616007    6.75850797406872
H        12.21326041781468    2.18566241486664    5.30700037341511
C        11.33637196357770    2.83794346996730    8.58201933248308
H        11.02432970382596    3.70352840868333    9.16180843598340
H        12.22567061109342    2.41762180853664    9.04679780457963
H        10.54134412266403    2.09786078482036    8.62987881076461

