53
CSD_code = OPALOI | q = 0 | S = 0 | Stoichiometry = C22H23N3O4Pd | MND = 4
Pd        8.80467200736649    7.31236255203791    0.87243235421649
O        10.66976700967101    8.31726838264209    0.91607327566808
O        10.66628328748889    7.16368126297475    2.79128968763954
O         6.89505471605750    6.48611874631841    0.55134627348202
O         7.49454660171928    5.60364923746730    2.47800159236939
N         9.66934151365852    5.77990899423238    0.09895061916702
N         8.88352343440325    7.94098439727209   -1.84833358863475
N         8.00417560133291    8.83456176481769    1.73039019940395
C        10.10542483111063    4.72995013365018    0.80009038618318
H         9.86467658321795    4.73534290317971    1.85986039294866
C        10.82323940872922    3.70122672913423    0.20934990561650
H        11.15531919296279    2.87424931614052    0.81726711433025
C        11.12082567240215    3.72722429512431   -1.15364103552798
H        11.68269212198190    2.92692537161906   -1.61178562328837
C        10.66918596384088    4.81194918252399   -1.87770668288049
C        10.80663772725320    5.17527861271087   -3.34295404495984
C        10.14604929426599    4.12303043935373   -4.23847645684649
H        10.65284134434887    3.16710926634353   -4.13192601420105
H        10.19759306797766    4.42995347268059   -5.28022811493708
H         9.10140555588976    3.99630443290559   -3.96332470081067
C        12.27934684473482    5.36261453515033   -3.72209307339201
H        12.74020661236501    6.11020606266217   -3.08036270299641
H        12.36298497100272    5.69044126559028   -4.75538344753600
H        12.81903418549448    4.42562517068978   -3.60897215202815
C        10.06159779259679    6.49316190679813   -3.40283375906204
C         9.81027926690596    7.35120615953150   -4.45256215486232
H        10.15608689952171    7.14699854394626   -5.45580289450035
C         9.08477991209067    8.50460223835985   -4.16853648368883
H         8.85825913354802    9.21007336034301   -4.95308777250790
C         8.65079483453219    8.75128244100207   -2.87094682335696
H         8.08584206427062    9.64749589283031   -2.65019044737712
C         9.57235949575131    6.84416249767235   -2.13399584193123
C         9.95027115327344    5.80286898050261   -1.19890356545399
C        11.20673444148110    7.94180446312018    2.00428271796727
C        12.59532441783340    8.49998665878531    2.29760710125243
H        13.33110747453209    7.89470325336171    1.77159784039386
H        12.79309359839191    8.45108095989751    3.36407035647732
H        12.66769406282567    9.52326211463342    1.93994828846314
C         6.68477080257091    5.74324835587770    1.56052961433856
C         5.35193876759025    5.00288032156000    1.58183578147643
H         4.55600750384893    5.66729722661643    1.25681402159891
H         5.15390511223549    4.63052518700425    2.58228078621314
H         5.40578362296311    4.16522030181115    0.88956722028913
C         7.63092429792975    9.92951394820735    1.06914546775261
H         7.75184676524314    9.89355092756240   -0.00964093837490
C         7.12302449888512   11.04208482941223    1.71736537276648
H         6.83105568231766   11.91330658821684    1.15168068480660
C         6.99935350663309   11.01641180604529    3.09898957125385
H         6.60874891864830   11.86950220026974    3.63332275525503
C         7.38906199659262    9.87095542966373    3.77800381108952
H         7.30953727700834    9.80945436512311    4.85184940827940
C         7.88731681554833    8.79737047235057    3.05924027644538
H         8.20887233515669    7.87482204228965    3.54170544201061

