37
CSD_code = OPALOH | q = 0 | S = 0 | Stoichiometry = C13H16ClN2O4V | MND = 5
V         4.84322912768157    2.03536663043702    0.62864954838540
N         5.50472052183997    2.68702761775247    2.44713014393870
N         3.20486723426470    3.16090960856491    1.44011456343687
O         6.44886935701670    1.27000411999854    0.50781426598292
O         0.32717543823599    3.39633046399117    1.79648174015799
O         3.88750848825888    0.83805087694742    0.52111383728045
O         4.80938067150626    2.95677927508142   -0.59505071463996
Cl        8.78337950676488   -2.35208952682432    4.42035393826810
C         6.80364111896650    0.71651283387725    2.78096192600252
C         6.92109785024185    0.46279589864782    1.37623117441661
C         7.65639187892764   -0.68513736889103    0.98253502347427
H         7.74708565295631   -0.87593363245163   -0.07682004986211
C         8.20174306518913   -1.53662233182688    1.90529193486194
H         8.73770549114955   -2.41789441827011    1.58755390913358
C         8.07287632632340   -1.26852714428774    3.27413746836679
C         7.39862396327374   -0.15610056466931    3.70793772948308
H         7.30841195245088    0.04899205988591    4.76479785697130
C         6.17105541698369    1.91327173562883    3.22181169148518
H         6.31167964370173    2.18864143035716    4.27598258074055
C         4.97096962129450    3.92901547831822    2.93100974135088
H         5.75962176167648    4.69430106939152    2.93725876552491
H         4.60034092870310    3.82978479812720    3.96439232694233
C         3.85295163706293    4.35761962985878    1.97194030291231
H         3.15823445728230    5.03326073738688    2.48797958495386
H         4.29214703254680    4.87979623194168    1.11545635963634
C         2.45034070007377    2.40386749335046    2.44888709367286
H         3.07423737744978    2.19364710273484    3.32014793745382
H         2.18251994592741    1.45133528517095    1.97952722319836
C         1.16747038995374    3.12084895410309    2.88956553345539
H         0.59333480142892    2.47476471496697    3.55674087101168
H         1.40304941366637    4.05436612268600    3.42747258602993
C         1.00060354568222    4.15872925564352    0.81862502750652
H         1.22586062513548    5.16111653345731    1.21663000412713
H         0.30105781083849    4.26408100971746   -0.01179031415082
C         2.27660848791932    3.46015464339392    0.33792782337370
H         2.02352710229816    2.50023029236734   -0.12369461484173
H         2.79728165532470    4.06490308343449   -0.40770482004245

