40
CSD_code = OPAQIG | q = 0 | S = 0 | Stoichiometry = C18H12Cl2FeN6S | MND = 6
Fe        6.12428623377634   17.96247028137875    3.11903694873867
Cl        7.35519762105992   17.88160926355074    1.31788849438348
S         6.12424969527683   21.54185669371603    3.11915394914341
C         5.28241918302953   15.48032643788608    1.78622232069637
H         6.28759578331197   15.14811925610663    1.99713666681725
C         4.39531460220919   14.66791006852371    1.10698146544236
H         4.69477287370290   13.67672876032026    0.80712070280643
C         3.12386820623534   15.15154921343423    0.82193945765828
H         2.39912377288930   14.53600973004404    0.31212530250121
C         2.82114745723755   16.45199558014497    1.17336918204019
H         1.86474047886355   16.88031718365480    0.92222806446848
C         3.77777021482213   17.21681257314737    1.84018225060672
C         3.64406480557441   18.63221522908281    2.12719834383097
C         2.46269294029820   19.35793235361722    2.01015949647084
H         1.53654466123077   18.87770277972706    1.74635351366776
C         2.52440056473792   20.71438573676054    2.27586298434796
H         1.66110103539969   21.36105740325211    2.22248039310863
C         4.74157349423456   20.54198095284490    2.71578161428222
N         4.97664997375846   16.71008051147762    2.19020254038914
N         4.81321926881122   19.22596373607044    2.49596593865585
N         3.66448027194182   21.29294526905366    2.61478082296054
Cl        4.89344989841054   17.88166113432759    4.92024668604069
C         6.96618599990434   15.48033745624569    4.45184496180284
H         5.96095949075101   15.14817184222932    4.24107267149945
C         7.85333309326051   14.66790895706909    5.13101350585568
H         7.55387660241289   13.67674102848619    5.43092875520880
C         9.12481521940604   15.15152095601835    5.41592781659336
H         9.84960800216310   14.53595825481356    5.92565682679975
C         9.42753820431094   16.45195322362444    5.06445373831219
H        10.38398830077604   16.88025049440185    5.31548322659067
C         8.47086395216703   17.21678292149227    4.39772719853520
C         8.60455837923351   18.63219105913192    4.11070536889611
C         9.78594626961562   19.35789630171153    4.22763286999258
H        10.71212277960726   18.87766044174426    4.49133458708167
C         9.72421404931359   20.71435487488512    3.96195738974750
H        10.58752471133032   21.36102364117264    4.01526018009832
C         7.50699060083621   20.54196705272764    3.52229459455606
N         7.27194471131488   16.71007369837172    4.04782540959914
N         7.43536972465251   19.22595158643194    3.74207098863121
N         8.58409687212897   21.29292606131890    3.62319277114119

