45
CSD_code = OPASAA | q = 0 | S = 0 | Stoichiometry = C20H19Cl2N3Pd | MND = 4
Pd        4.25589229400974    2.15012168368306    3.89674165880681
Cl        2.34336968181450    2.27495459551041    5.03491710852318
Cl        5.07040045712441    0.86190223470847    5.50385872640886
N         5.84932872849002    1.93901095811117    2.67743721368213
N         4.28974684470157    3.38361781033728   -1.01906758463955
N         3.68515669271040    3.28774641046757    2.42698339018125
C         6.95434827750412    1.23324701169426    2.90328314430116
H         7.04719174311656    0.80975698489035    3.89750268304408
C         7.92252586273060    1.04533559356723    1.93402352642188
H         8.80328487641124    0.46612119673323    2.15866118725355
C         7.73467141782620    1.61095747378125    0.67707750736572
H         8.47037418797057    1.47768307910442   -0.10115240472845
C         6.59137763569646    2.34631686571465    0.43784068133952
H         6.39648539552767    2.78756046396859   -0.52532676979954
C         5.65027626190978    2.49768733066439    1.45911941231646
C         4.43168068046540    3.28093517065129    1.35922810712748
C         4.09295124874050    4.02789709357205    0.13143174042100
C         3.57771468144880    5.32492680167259    0.17095420456254
H         3.46094699225851    5.84730120250194    1.10547035904019
C         3.23378679616381    5.93791549027739   -1.02138496628641
H         2.83047350291134    6.93962291745108   -1.01825541928498
C         3.41441809402403    5.25121900315809   -2.21168586253400
H         3.14922244147930    5.69152657021982   -3.15947734036426
C         3.95949118341831    3.97726015769250   -2.14898296454761
H         4.13998441443302    3.39663087246794   -3.04427170381487
C         2.48759604416684    4.00866179519184    2.52955868231140
C         1.33717441331699    3.56187775537812    1.87510817685454
C         0.16552870754929    4.28454050768051    2.03524566460985
H        -0.73062944130863    3.93980977891712    1.54000219481737
C         0.11362865148549    5.41744402816871    2.83295614034885
C         1.26097839861488    5.81185743450323    3.51234242295383
H         1.21898751713221    6.66937917344686    4.16814237520037
C         2.44930751733032    5.11659020614585    3.38810733590125
C         1.37874949428876    2.27659229879408    1.10622521435432
H         0.37415696334724    1.95486290700369    0.84651055073248
H         1.84801762424953    1.50222045856700    1.72374839300066
H         1.95992288005389    2.37371513901161    0.18837498772411
C        -1.15543473670745    6.19688945506247    2.99278895023880
H        -1.04344857884450    7.19499294082809    2.56945248790286
H        -1.39901851185682    6.30848073996760    4.04767565990853
H        -1.98351553997701    5.70054655013303    2.49426305848613
C         3.68176879899015    5.50146881623602    4.15220325966921
H         3.46734264840471    6.31676950082272    4.83752145604853
H         4.48776510704306    5.80961614612088    3.48204583111408
H         4.03972164983131    4.63442939542442    4.74020152302474

