53
CSD_code = OPAWIN | q = 0 | S = 0 | Stoichiometry = C22H23ClIrN3O3 | MND = 8
Ir        3.15734794808436   12.98300718404679   -0.48226769368435
O         8.34105116308600   17.71791651639475   -3.47557837734956
N         2.44026101356417   11.45203336045056   -1.58687810552030
C         1.47241975634760   10.62461836885431   -1.19256672953311
H         1.07259467568348   10.78101601525513   -0.20116006656835
Cl        1.23675532149223   14.13371246964963   -1.20897468571231
O         6.89343456814632   18.85974514370077   -2.36896585931869
N         4.05562281866381   13.30445439428734   -2.31343309502044
C         0.97570831956866    9.62379392438109   -2.00579293885978
H         0.19000008695250    8.98126229980267   -1.64191041482604
O         4.50194803996424   12.28129750991523   -4.33429752360782
N         7.28222723671753   17.82852330900619   -2.88653138022010
C         1.49351862882628    9.46855202740536   -3.28554474918770
H         1.12301043819812    8.69546373904927   -3.94044267638443
C         2.48236816752909   10.33990813486343   -3.70279945123834
H         2.92286330847084   10.30121000358760   -4.68682290734985
C         2.92798728051205   11.32137086344099   -2.82935618461558
C         3.94146595431512   12.34181075040739   -3.25240882464319
C         4.85720332757760   14.41361444697543   -2.51619924581857
C         6.10261306121347   14.33163487412301   -3.15613009561351
H         6.43437223230587   13.38612673966117   -3.55150102620936
C         6.88995395958931   15.45258669866353   -3.28492723078960
H         7.85589514545918   15.40303707718611   -3.76401709655210
C         6.44888068733481   16.67364567922994   -2.78080234369843
C         5.19999320978089   16.77689960302853   -2.16884336219921
H         4.86799837761100   17.74090132961307   -1.81384444497061
C         4.41523123929264   15.65710851844231   -2.03869083301179
H         3.43727655963152   15.71918023700524   -1.58698181920164
C         4.90780343763608   13.59444935574963    0.85200091775097
C         3.72340331677681   14.27881307533965    1.23750265120057
C         2.76906993357355   13.29046981348244    1.70344629983772
C         3.36046840617342   12.01182889964216    1.56173451704819
C         4.66274061560013   12.18780668722341    0.97054747666088
C         5.69287590970775   11.11869073102206    0.80533041707793
H         6.28557125712691   11.02956810022141    1.71759725277718
H         6.36933423792262   11.35438029046413   -0.01308638697275
H         5.23198965387971   10.15385408332866    0.60595685871090
C         2.82709809914082   10.71144123519182    2.07081249909766
H         3.29759399071731   10.47978957558017    3.02784295897137
H         3.04677511814997    9.89434823206133    1.38561566223548
H         1.75194937258357   10.75595064395624    2.22698037618561
C         1.47979253933501   13.63808100650800    2.37230081149136
H         1.67874417155278   14.21618840566568    3.27509497160262
H         0.91985536608079   12.74813829378250    2.64644314944684
H         0.86215878243010   14.24512957123824    1.71171763505730
C         3.55120232506623   15.75096954659221    1.43262605574145
H         3.65859200419351   15.99538350198577    2.49078021805199
H         2.56003970514583   16.06504074838984    1.11235716559258
H         4.29288438937245   16.31357388308458    0.87259467516783
C         6.22562666549462   14.20256870683952    0.50573305326773
H         6.87937750925065   14.15801645704413    1.37832772335559
H         6.11814257196693   15.24230594231876    0.21024680847588
H         6.71120809522415   13.66478199487008   -0.30593460612032

