37
CSD_code = OPAXAF | q = 0 | S = 0 | Stoichiometry = C12H12CdN10O2 | MND = 6
Cd       -0.56004612155619    6.63083387073786    3.71223760204434
O         0.18786559703906    6.32670555887137    6.16126912370652
H        -0.24593152284473    5.52562977023297    6.47743243846382
H         0.16572220182552    6.96363093982734    6.88240993866734
N        -0.93603485036487    4.61839221138882    3.88518224647594
N        -1.83234493713839    3.78409088233000    4.37943306274421
N        -1.40317831007574    2.57202168354147    4.23857565409979
N        -0.22520659713387    2.55721851436736    3.65992793477276
N         1.33269278270249    5.73573836959311    2.81036332272668
C         0.07397782732414    3.83754026810916    3.43889226960322
C         1.27798195625425    4.39684719251100    2.86737124988855
C         2.32691107186172    3.59219381505310    2.41947339055670
H         2.22930938836979    2.52073880746015    2.48926002710814
C         3.45482584537658    4.20296309989382    1.90722889057081
H         4.28535882552608    3.60998111429727    1.55349939335243
C         3.50693093658449    5.59099554427156    1.85685758154518
H         4.37395361147428    6.10041591054697    1.46754068725173
C         2.42079445512637    6.31573410005026    2.32076437186279
H         2.41037310485662    7.40003679958280    2.30777640364820
O        -1.31324655093007    6.93673331685033    1.26462641208860
H        -0.88074767422986    7.73811610332993    0.94751542719421
H        -1.29309202828964    6.30018566652677    0.54309135156127
N        -0.18322242808874    8.64320531741515    3.54071213519884
N         0.71452847890867    9.47759896820469    3.04926375784973
N         0.28472868681482   10.68960811306155    3.18861855777874
N        -0.89512639865890   10.70428866829214    3.76344671566282
N        -2.45557514264161    7.52567930723360    4.60793389464343
C        -1.19482971220312    9.42394380018831    3.98363317004264
C        -2.40072712521917    8.86456488021254    4.55108914375939
C        -3.45122289633658    9.66918052585616    4.99537221903822
H        -3.35340569042931   10.74064186906666    4.92597792160931
C        -4.58091009043836    9.05836076671369    5.50363998581768
H        -5.41269171143657    9.65131210438872    5.85447408709099
C        -4.63315575361680    7.67032694029655    5.55378487690766
H        -5.50152151966851    7.16086716418203    5.94004544812908
C        -3.54534032809483    6.94563669146309    5.09374829474468
H        -3.53479738064799    5.86134134403512    5.10703101179596

