80
CSD_code = OPEFIA | q = 0 | S = 0 | Stoichiometry = C37H34AgClO5P2 | MND = 4
Ag        4.34337071214133    1.62763957551446    2.71639535153027
Cl        3.47487600985101   -0.90336227156151    2.56726743558677
P         6.70353759595203    2.20635888948309    3.49971916123598
P         3.64629303667204    3.34091355834565    0.92853334388954
O         4.81309617376958   -0.75571920255362    2.09100809107151
O         3.43664809398546   -0.45112708990191    3.93081612860249
O         3.04965488493309   -2.23531962604615    2.47980584870434
O         2.62578189912369   -0.04550886401860    1.80196678002490
O         2.41902700615246    2.14345833231010    4.32870636428995
C         7.17060888713914    1.53029740032270    5.12951815941515
C         8.43034615607515    1.74451141451311    5.68325724428745
C         8.74709482326934    1.18922472093835    6.90828630366990
C         7.81614410769371    0.41458457012047    7.58407893671462
C         6.56524743327152    0.19450719730571    7.03279166330698
C         6.24017602011076    0.74982780307404    5.80682083181153
C         7.08281870727586    3.97983526409755    3.66088585139432
C         7.06252868090130    4.63046444565105    4.88888306502114
C         7.30186817773781    5.99161282089609    4.95652888132482
C         7.55554516207583    6.71337965284754    3.80286872083249
C         7.54746138279627    6.07506891782655    2.57252667936622
C         7.29834756709125    4.71902724995954    2.49896427279357
C         8.11034168009536    1.60196652880974    2.49841425938688
C         7.93533035281278    0.38021441983390    1.85147262404475
C         8.96692573846405   -0.16000334270170    1.10406530388529
C        10.17428488178932    0.51098670935564    0.99638452071113
C        10.34929909638745    1.72635810585289    1.63800379524604
C         9.32402409104826    2.27357186821800    2.38840242071785
C         4.08245917070247    5.04110914805047    1.43438273629287
C         3.92594136619142    5.34232403628684    2.78422721548666
C         4.18796502089034    6.61671344167782    3.24982096209079
C         4.61814923622119    7.59773503590503    2.37127957083911
C         4.79362809042712    7.29822618076031    1.03044605584674
C         4.52864966421465    6.02455492048879    0.55932429880716
C         1.96165388628344    3.55936058088029    0.26277116713105
C         1.35254534653603    4.79364063676373    0.06442643108637
C         0.06788954222788    4.85114867734953   -0.44815887906716
C        -0.61281993532072    3.68598131237072   -0.75992807053405
C        -0.01185768616813    2.45427217459548   -0.55015655050903
C         1.26919088218549    2.38672514509600   -0.03500321286066
C         4.61581854635751    3.13478489727416   -0.60505414880032
C         4.20470363111954    3.60019506406408   -1.85022879159566
C         5.01444623563792    3.41336108096515   -2.95695905752020
C         6.23256301390603    2.76469325741841   -2.83181533051751
C         6.63994036918762    2.28634835660284   -1.59635418140246
C         5.83073886504033    2.46561914310675   -0.49027779104679
C         1.14583713447869    2.32154086876785    3.73451244510184
H         9.15707836107414    2.34446818759570    5.15421438658185
H         9.72429241336616    1.35654492877023    7.33758720234985
H         8.07034349965731   -0.01984782120001    8.53974007792415
H         2.48621629230953    1.21335788818629    4.59453880921791
H         5.84164315211745   -0.41332087062656    7.55512151639652
H         5.26617743717420    0.56932898530956    5.36624790919569
H         6.86465277177191    4.06829514210430    5.79055996202749
H         7.29440460464490    6.48978589536561    5.91506564523180
H         7.75374755066409    7.77326172192980    3.86018447844797
H         7.73268414712978    6.63743395120519    1.66944188138338
H         7.27944395793417    4.21958626201188    1.53894782379118
H         6.98762292065790   -0.13803365083487    1.92887102969482
H         8.82516150527128   -1.10551458542318    0.60235100388276
H        10.97847628475990    0.09033148137398    0.41054986369408
H        11.28979474394340    2.25175705887386    1.55446140657816
H         9.46608235462517    3.22843887063787    2.87480843717459
H         3.60136007397161    4.56262533918779    3.46267067550886
H         4.06177063815323    6.84541551632602    4.29741592924839
H         4.82191155336413    8.59491649824535    2.73219304603870
H         5.13489986165401    8.06225943768497    0.34669721859369
H         4.66880775880420    5.79364454760382   -0.48714993298044
H         1.87736393527981    5.70560645883007    0.31230449687477
H        -0.40363583562236    5.81098747297225   -0.60304928294877
H        -1.61453651881425    3.73822989886142   -1.16057085567825
H        -0.54690738769567    1.54537266653201   -0.78185318392430
H         1.73610251684303    1.43122786123419    0.16506294186403
H         3.24958246030353    4.09644297029500   -1.95370803810631
H         4.69233663197289    3.77393614957826   -3.92314887683470
H         6.85871735650603    2.62224854133239   -3.70010185710639
H         7.58151048705985    1.76668900329435   -1.49495430105499
H         6.12583350595803    2.06987165344685    0.47788267959227
H         0.35598941404861    2.18443187403718    4.48047409248077
H         0.99062712925212    1.62653047034589    2.90536435707677
H         1.10562368317661    3.34298718829067    3.35475255034542

