79
CSD_code = OPEFAS | q = 0 | S = 0 | Stoichiometry = C36H39ClFeP2 | MND = 8
Fe       12.63620435182283    4.27290583765496    4.89718734893569
C        13.88654738746669    4.66831436218968    6.61032797383119
C        12.74647074084424    3.93975697821732    7.01393338577494
C        11.58391948971876    4.71613665941720    6.68798972174808
C        12.02067491354904    5.92291694595299    6.08363689646424
C        13.44262553803156    5.86971012634370    5.97701323162697
C        15.31607550253486    4.31136146242355    6.84551619229286
H        15.79892734975974    5.09089153477087    7.43541250098951
H        15.84929174579432    4.23129639670174    5.89858942343282
H        15.40224821884796    3.36706141186670    7.37729841367337
C        12.73190092060547    2.70885348806239    7.86181526129464
H        13.48044725650684    1.98909901603225    7.53776962664066
H        11.75570594144748    2.23306538948745    7.82435691427098
H        12.94357992299511    2.97529238000946    8.89976523133126
C        10.21190035344744    4.41568933032757    7.20295246291835
H        10.22936065496661    4.38967860476081    8.29396015620561
H         9.85622362413210    3.44591483496928    6.85553686681457
H         9.50230483362390    5.18006117139994    6.89762201259621
C        11.17634687406399    7.11604274874557    5.77996229717321
H        10.99332214195945    7.67405594261862    6.70059974764557
H        10.21449436633750    6.83693761087335    5.35609960007978
H        11.68423284745710    7.77557857184685    5.08133423324473
C        14.35306167550410    6.93430370867657    5.46142349701338
H        13.83553196071187    7.59011317489464    4.76485486097163
H        15.18898318244246    6.47842580594810    4.93540789341276
H        14.74880228936113    7.53671969722510    6.28090432027879
C        12.64408179157951    6.45846038499881    2.19536157764168
C        13.88464728169009    6.34365115547404    1.57449994344728
H        14.37503380112371    5.38462408704752    1.52640077997951
C        14.50467327436331    7.46147716417728    1.04595276001987
H        15.46648154865897    7.36114630958879    0.56467440587935
C        13.90342599298826    8.70545161464281    1.13814147659653
H        14.39055962291075    9.57717070686325    0.72610033553520
C        12.67576769595062    8.83073280050453    1.76821965731644
H        12.20419539612199    9.80002783443151    1.84928897024415
C        12.05313294350469    7.71705127571834    2.29920128956277
H        11.09397178076498    7.81996276349213    2.78847790940798
C        10.09731775955550    5.39371136529563    2.80725729236111
C         9.57045565437000    5.91112787104863    1.62818604588108
H        10.23128073041669    6.17444414105050    0.81310696777168
C         8.20576782742256    6.09590056469751    1.50516660438127
H         7.79836394931079    6.50037503999687    0.58970690481938
C         7.35755901448816    5.76354666262665    2.55102497503125
H         6.29262072013676    5.91334980191039    2.44901636434918
C         7.87569091650118    5.23699039108270    3.72195827209756
H         7.21761800968422    4.96866682813218    4.53642368144705
C         9.24202495281802    5.05184508247784    3.84429917102084
H         9.67647473392121    4.63047282991887    4.73864702495425
C        12.00231022544440    3.65588463608437    1.79655672500111
H        11.45197007917855    3.90696506814774    0.88401729629025
H        13.05685826273137    3.52230796405954    1.55006357466592
C        11.45022066150769    2.39011381322468    2.45035378229572
H        11.84112844608291    1.49792355703709    1.95377449878866
H        10.36014149650531    2.38076446084142    2.36756805777510
C        10.43639602949149    1.51641234173313    5.00639853706537
C         9.13076749003817    1.85054505499794    4.65958296125008
H         8.94108621177574    2.56177926595283    3.86960741304361
C         8.05628882364830    1.28116284214251    5.31943468246462
H         7.04982050474776    1.54795429758784    5.03020228453819
C         8.26630776046645    0.37755446242407    6.34697535731168
H         7.42679789067575   -0.06392418575936    6.86330642844603
C         9.56132612809772    0.04382536015088    6.70834268115274
H         9.73530229517532   -0.66057533646717    7.50902245044270
C        10.63496445238451    0.61036103756765    6.04746709419381
H        11.64199935591474    0.33717034012824    6.32831259919408
C        13.04148032438488    0.91461354042725    4.32287482585693
C        12.68683572161182   -0.30855388609509    3.75903592470187
H        11.72553262829207   -0.42041892968212    3.27403205828620
C        13.55149181089770   -1.38342731084364    3.83489344451761
H        13.27369744829298   -2.32998094071365    3.39327712174574
C        14.77199264258962   -1.25070257838711    4.47921410961807
H        15.44605977099459   -2.09322099736971    4.53430982158559
C        15.12289833925948   -0.04096132083440    5.05259800025570
H        16.07265061015148    0.06413689320442    5.55660956311721
C        14.25881105725211    1.03745157410004    4.97759541282724
H        14.52986004688204    1.99029516327314    5.40347771832421
Cl       14.44887272377970    3.93838030310847    3.71062186625364
P        11.87653718734504    5.03757470967145    3.03146261671483
P        11.89726409218501    2.34171893369181    4.27132861186637

