41
CSD_code = OPEKAX | q = 0 | S = 0 | Stoichiometry = C13H18N2PdS7 | MND = 4
Pd        3.35427719392686    6.88562828993477    3.92300052649405
S         2.95400061633602    9.04942625440961    3.30058110464558
S         5.10761670722384    6.74684531378067    2.46578658217088
S         3.76739681990736    4.70751073567081    4.47116773015207
S         1.64050537990534    6.98551181734931    5.43406798749742
S         0.91816597624449   11.05601093434700    4.22854998214865
S        -1.36630233680752   11.94299819101387    5.90941717690893
S        -0.25921712517380    9.19699925293678    6.16370227257564
N         5.44201227387104    2.91961972315706    3.44758956522416
N         6.93206545031374    4.85784679067288    2.08457810970998
C         5.06694724768494    4.22393676499324    3.47741289961205
C         5.75536111887481    5.18264973199132    2.67794177499980
C         7.51415177504229    3.57574636448551    2.39986377465685
H         8.02247394680444    3.61508948789400    3.37265942563975
H         8.24210788670254    3.31362957153000    1.63297210763904
C         5.81256385618518    1.32565290895624    5.27065666154934
H         6.25480882568536    2.12721166547380    5.85673243930907
H         6.60724709420087    0.77261827158219    4.77497116174275
H         5.29904991867565    0.64876565599346    5.94679192567973
C         7.63684098474075    5.32537444930554   -0.21381910624770
H         6.60825400110637    5.19954134815202   -0.54187466819516
H         8.16639322581110    4.38471694865333   -0.34796310462326
H         8.10883134279693    6.07469000702643   -0.84205972803425
C         1.08267440658657    8.59166291685269    5.21446293725464
C        -0.29707398151377   10.79836061158554    5.46035907967910
C         1.63171978875244    9.45850814211686    4.31220421232749
C         4.81164227457480    1.89792676651532    4.26694525907418
H         4.01575552451962    2.39880941130047    4.82339918475150
C         9.09928691905526    5.97498293859104    1.74964897009438
H         9.70111472775708    5.08028934331439    1.61092140401582
H         9.09401243824099    6.23614818703754    2.80481613001117
H         9.56729824089564    6.78632211704478    1.19986445248975
C         6.40840219728849    2.52905370840618    2.44995396127355
H         5.93144971006858    2.45606793247737    1.46319846195170
H         6.82447919665666    1.55746793803011    2.71248439537220
C         7.67089840511652    5.78535302386857    1.24358838447050
H         7.15169163387217    6.74445255318020    1.31409775353610
C         4.18226555683237    0.80712566277528    3.40264491313469
H         4.93543026038509    0.21461825413240    2.88902080564153
H         3.51784637425428    1.24885136679205    2.66437230373204
H         3.59875414659953    0.14257864666989    4.03299078993547

