76
CSD_code = OPEWIR | q = 0 | S = 0 | Stoichiometry = C28H38AgF3N2O3S | MND = 2
Ag        3.60951236054484    8.82931676739451    8.08461511060470
C         4.04137298321163    7.65281500720766    9.80403223495208
N         3.56362044282907    7.81075867010202   11.03331356822046
C         4.06585188507656    6.82270221383514   11.99088209286798
H         3.23409103703903    6.25644096433626   12.41888595146772
H         4.59383356078260    7.32351880853865   12.80704187742657
C         4.98779097727576    5.96506611138365   11.11913873603378
H         6.02969235732950    5.98566283759499   11.45037670319525
H         4.66919796168184    4.92073109644286   11.05960947873913
N         4.86111065309100    6.60748120682435    9.80926623618557
C         2.65764912478820    8.83596375374853   11.42295356230987
C         3.16559421215720   10.05523318589336   11.87954845317407
C         2.26498916651535   11.02851672512435   12.29084099638191
H         2.62833658030365   11.98224286148012   12.63887836757022
C         0.90390407685910   10.79667782898718   12.24544878635370
H         0.21686870931083   11.56440314800064   12.56852866353807
C         0.41729310243866    9.59673278335359   11.76401451505621
H        -0.64839845572411    9.44318585320437   11.70473164106407
C         1.28316718781264    8.59616636063908   11.34346104480567
C         4.64729635938683   10.34194017486563   11.84845782836691
H         5.18713562946982    9.40620818734212   11.67868377229524
C         4.93821558824604   11.26652419251337   10.66263757592518
H         6.00674306271828   11.44927031453765   10.58055194930345
H         4.43106976189313   12.21925276177255   10.78818338166290
H         4.58120781585330   10.80907809143166    9.73018001405794
C         5.15372464350061   10.95081963524771   13.15769307473018
H         6.23878203862849   11.02136397048511   13.13709892813595
H         4.86312075550137   10.33504256367471   14.00650999505591
H         4.75645731585492   11.95041104312257   13.30736213962371
C         0.74936604792402    7.31941564309782   10.74035601226308
H         1.56592655303623    6.59666838591186   10.65825467983198
C        -0.35798103709609    6.68963782123812   11.58806255264272
H        -0.03113399881525    6.56620622940949   12.61860007885230
H        -0.61850174546478    5.71231880124252   11.18845131349023
H        -1.25470499232341    7.30224997088064   11.58361691964084
C         0.25191559998518    7.62083881836041    9.32351619248182
H         1.06394348961940    8.04610608651879    8.71827597407189
H        -0.56419224458522    8.33781902464051    9.35039424845297
H        -0.10146102738191    6.71025568466495    8.84636033216692
C         5.55912202185988    6.12809748810066    8.66526661199627
C         4.95334521967747    5.16616775715699    7.85187929159051
C         5.66533636518613    4.68786431618874    6.76020723526884
H         5.21856847404360    3.95385903629054    6.10868702425125
C         6.93688552041405    5.15281403053461    6.48647591620106
H         7.47607890296948    4.77162454409003    5.63227137789285
C         7.51129033937185    6.12235684359020    7.28527888095243
H         8.49178782625779    6.49773822349290    7.03957587280802
C         6.83438888885705    6.62816058506735    8.38665393843024
C         3.53382193428853    4.71615879672879    8.10170262547787
H         3.22537745518471    5.04724522733963    9.09740700117205
C         3.38249826420894    3.19466071397179    8.04081614575258
H         2.38043474130229    2.91015835270852    8.35345732005706
H         4.10092300955939    2.70976656248516    8.69867586856240
H         3.53602323661707    2.82304941377812    7.03202535797506
C         2.61937181897262    5.40052809315703    7.08129160124247
H         2.71837426481514    6.49234977801114    7.15842498088530
H         1.58226059637962    5.12793290760743    7.26065679637381
H         2.88786374772878    5.10499663781007    6.07067180546218
C         7.42743578849026    7.74793300611544    9.20772560900845
H         6.84890927758177    7.85833238479935   10.12934905539548
C         7.29274376482531    9.05191432526354    8.41561344869197
H         6.23768143487868    9.23059793888760    8.16349390130307
H         7.85658426343312    8.99403280417221    7.48858509844071
H         7.66467035407808    9.88982949491988    9.00027039928990
C         8.88518956338904    7.48696030706449    9.59245809129535
H         8.98935869351594    6.51407031186927   10.06851032025348
H         9.22614548843619    8.25044974835522   10.28794608661707
H         9.53391984864061    7.51430791412497    8.72199252428612
S         3.17204531655047   10.07399057638115    6.08638649123549
O         3.44820564070651   11.05249767488320    7.11776726588922
O         1.96334733768321    9.31512169941653    6.32740996269117
O         4.31456801564701    9.24658153364192    5.76176389734395
C         2.82760408179127   11.06761860943570    4.55079576482588
F         2.55595632058111   10.27591641125790    3.50810186539772
F         3.87521216759771   11.82775822018269    4.21569347234722
F         1.77986247520299   11.88021414605847    4.72179611032618

