54
CSD_code = OPEZUG | q = 1 | S = 0 | Stoichiometry = C23H26ClN3Rh(1+) | MND = 8
C       -14.63503908083047    6.10469165184652   19.48915153451464
C       -16.26071217972826    7.35298094736712   18.11672829282184
H       -16.38859680950100    8.43492133429452   18.13908342779649
H       -17.23252537757245    6.88645347189609   17.94856472545700
H       -15.57319593220098    7.09551395069565   17.31165096937276
C       -16.10342028417507    7.33783835413093   20.59731913925505
H       -16.94285245516623    7.99073430765678   20.72221869611247
C       -15.27641716717522    6.79816956594177   21.52053425561154
H       -15.26535373609305    6.90607760005217   22.58437697773545
C       -13.16438069909055    5.46689112414333   21.22061507649958
C       -12.77829205528214    5.34459523582184   22.56448847582643
H       -13.45110180838268    5.64401886765486   23.35022729283674
C       -11.54202757197229    4.82753354377534   22.84077736477033
H       -11.21735555088171    4.68861403319886   23.86046348308000
C       -10.66334816675848    4.51400975719365   21.78379553342432
C       -11.12750230162623    4.68819059378695   20.44909682033531
C       -10.23160084960509    4.50697972217650   19.38065697924468
H       -10.57451595840727    4.74208713923754   18.38182294215428
C        -8.94272690785936    4.11318459842784   19.62189072079577
H        -8.25030608930158    3.99839414711472   18.80226789332612
C        -8.50169755708916    3.86810118030062   20.93172797032712
H        -7.48738756032816    3.54074181883674   21.09729851412248
C        -9.34100562024216    4.07370867355463   21.99262662977229
H        -9.00029158300498    3.92508530139086   23.00577009711800
C       -14.85653492095127    3.87960531686511   17.18930665018997
C       -14.00231193822991    4.61735893293467   16.30317811996920
C       -12.65582332432332    4.08625866064391   16.43689031459346
C       -12.67639912790397    3.09716562050750   17.43803627297162
C       -14.02682388830243    3.00888308547603   17.95925134689469
C       -14.50680433493802    1.94459828881208   18.89175794128268
H       -13.76031032988992    1.71507063811675   19.64903959823213
H       -14.70139719697717    1.03202191464791   18.32556054982442
H       -15.43020060837496    2.23701822299181   19.38600689371842
C       -16.35131742873865    3.87034751677262   17.20326287711257
H       -16.76209655063215    4.71037117028062   16.65151730879663
H       -16.74916063906508    3.88115671636047   18.21606098079700
H       -16.69233843321915    2.95171395192847   16.72333135434526
C       -14.41302555159035    5.51827360356341   15.18373708711793
H       -15.46301624424646    5.79140911711619   15.24553751001168
H       -14.25045305441540    5.00191238020233   14.23681943933082
H       -13.81016597836941    6.42498313473423   15.17418121147141
C       -11.53187995369070    4.45696609488738   15.52606632999617
H       -11.38767096235710    5.53650280713349   15.50901743324155
H       -11.77032784254771    4.13613597729087   14.51144750200048
H       -10.59992019215849    3.98493890064187   15.82543731473127
C       -11.60068473983731    2.11997349775254   17.78375101374422
H       -11.47210372747829    2.01883400294048   18.85995283165867
H       -10.64680020870598    2.39654919005872   17.34477747712123
H       -11.88687105784980    1.14309577050797   17.39035580334951
Cl      -12.42653686467878    7.14125064043192   17.88765189285791
N       -15.69025887193214    6.91007542456772   19.35947338008639
N       -14.36432132081765    6.04107411744013   20.82352075926593
N       -12.40452187409289    5.08180068901834   20.20583252510470
Rh      -13.38926953168758    5.07873769468154   18.32068646792837

