51
CSD_code = OPIBAS | q = 1 | S = 0 | Stoichiometry = C20H26ClN3Rh(1+) | MND = 8
C        11.36088895689342   12.14513154563042   11.71086039539372
H        10.99920802866944   11.14864399764022   11.46227840672166
H        12.17374730696308   12.05866436971097   12.43061585608233
H        10.55793601652240   12.73684054584490   12.15376991277594
C        11.55795246184634   12.39899006277801    9.26212759171758
N        11.84919852330126   12.76648460341228   10.51087673155669
C        12.75566491125829   13.79364198279653   10.49339636785047
H        13.12201936548627   14.24758725322774   11.39126073536238
C        13.05100805698125   14.06380175086507    9.20325326146369
H        13.72747991642328   14.78810319568922    8.81038499030467
N        12.30915057458034   13.19099825531771    8.43801281845624
N        11.59656967892079   11.77766454174214    6.81530877258126
C        12.33701877372717   12.86863423837730    7.08206657338306
C        13.05613283140279   13.54285103694617    6.08560753748991
C        13.02959019786326   12.98570700424102    4.81133306954662
H        13.57669022172956   13.46712004936935    4.01571949318019
C        12.32543880935622   11.82003879005602    4.56144546535127
H        12.32457964228432   11.36857910062051    3.58348633964337
C        11.60878113045253   11.25033104231579    5.59370656156630
H        11.04118397511276   10.34300635845876    5.44588198481741
C        13.83016698189696   14.80181215256521    6.30949176238178
H        13.22856671645072   15.55117514805396    6.81985066414220
H        14.73027894365943   14.60462266947077    6.89065954860525
H        14.14117909610584   15.21238332807877    5.35243799402380
C         8.58674352999830   10.94263609808726    9.38177713414703
C         9.23797841553900    9.68528671417884    9.59415390074241
C         9.35891353575730    9.02302024397346    8.30493029253275
C         8.85636926376783    9.89302244135558    7.31859595171014
C         8.43023020147088   11.11541365420022    7.96996748824144
C         8.00323396660370   11.84862724576161   10.41837659991743
H         8.34277768649915   11.58712651557838   11.41593036648434
H         8.24141785793028   12.89262371289809   10.22550515604259
H         6.91744054961035   11.74577304387974   10.39262006343309
C         9.44000454382132    8.96765855693638   10.89117705784258
H         9.24339744451802    9.60853666914920   11.74659353057994
H         8.75230217359771    8.12233077757822   10.93570270825299
H        10.45181194010682    8.57219167129568   10.96656104094408
C         9.78898268447177    7.60425490613994    8.13882708672996
H         9.94905523566163    7.35368557497248    7.09383951394416
H        10.70920374266810    7.41077523584343    8.68698986278030
H         9.01506189683011    6.94692110866372    8.53752786713201
C         8.57472734007578    9.55267766280831    5.89061212257142
H         9.25393714657639    8.79117903977602    5.51329873620519
H         7.56166156946189    9.15114869670239    5.82725570101690
H         8.62233305375782   10.42876870028849    5.24716919592242
C         7.65633044871253   12.21187550460584    7.31337832042916
H         7.70831047629904   13.13161336323902    7.89054868727421
H         8.01850590778004   12.41053124609865    6.30701418739400
H         6.60840734926736   11.91617155519775    7.24051923860213
Cl       12.56421724961631    9.79446185408899    8.85314237996691
Rh       10.57341367180794   10.90007518341104    8.39405297479381

