63
CSD_code = OPICEW | q = 0 | S = 0 | Stoichiometry = C25H32Cl2NOPPd | MND = 4
C        -1.61754044065187    6.55008370931157    6.09340161955264
C        -1.35261779024728    6.92604533647337    7.41629547121033
C        -2.42419623915389    7.14828346011447    8.26347397267734
H        -2.23635770003286    7.44109242458437    9.28686206296115
C        -3.73698524721546    6.99386817562766    7.83421143121947
C        -3.97001635306334    6.58603697164664    6.52961543573961
H        -4.98584858045078    6.44200386831359    6.18957292471875
C        -2.92357810081650    6.34768301530436    5.65177413632139
C         0.05672946374724    7.06026509955209    7.89631011897495
H         0.08763428044486    7.38062423763815    8.93468414403464
H         0.61278449615294    7.77819385080871    7.29007488313282
H         0.56268977424951    6.09352970662014    7.81297952838505
C        -4.86889305336707    7.25268927755014    8.78000166408876
H        -4.78040797371324    6.61468866854690    9.65802754986181
H        -5.82753491423152    7.06130589549390    8.30526334912003
H        -4.84830435333034    8.28781805127987    9.11878808526218
C        -3.18268976540785    5.88606964614780    4.25163782130056
H        -3.05866342723848    6.71423371199420    3.55298106336266
H        -4.19367451845900    5.49918646940340    4.14965664458870
H        -2.47574955683595    5.09845449235285    3.98324074129340
C         0.05213448892185    7.77768040501123    4.21500045831957
C        -0.99025255410671    8.82004297624870    4.23537528519789
C        -1.80001560905586    9.00506674857071    3.11668072972478
H        -1.63248171500583    8.40204624021622    2.23445403303804
C        -2.81989141674211    9.93782027195085    3.13187299101172
H        -3.44087696151800   10.06724535600040    2.25750710992844
C        -3.05020169187818   10.69727559261452    4.26644900219888
H        -3.85086304881442   11.42125065994411    4.27988728137985
C        -2.25029626580931   10.52209207257449    5.38195790423653
H        -2.42382529990521   11.11034923253931    6.27060111308503
C        -1.22690661959028    9.59218975338189    5.36702951274119
H        -0.60382557863714    9.46571798360571    6.23856118738048
C         1.36549892731372    8.03233774086288    3.47208391612583
C         1.32581738358222    9.31996309623456    2.64815940051374
H         2.29637537348562    9.49259510362492    2.18914460085377
H         1.08497254333076   10.16446146496161    3.28886007759966
H         0.58408671856448    9.25921863588617    1.85758987563945
C         2.49332899005947    8.14047038375411    4.52065038926071
H         2.58810177876423    7.20541418904192    5.09840702516829
H         2.27448060016319    8.95786550415473    5.20439613922153
H         3.44456693285553    8.34058474983301    4.03079848585091
C         1.66515905556094    6.86133853300208    2.58061831033989
C         2.00764120573433    5.75668094677767    0.67167718833663
H         2.94868426606423    5.86319367631537    0.12718454940282
H         1.21515704865273    5.48960585993893   -0.02976734399312
C         2.12356955040458    4.79083290680009    1.87330756230692
H         3.13230767002144    4.37003226994562    1.96440357911792
C         1.11899887300382    3.61901475762237    1.92142283333045
H         1.21640625226492    3.17893494304690    2.93736970715961
C        -0.32846268997547    4.07595878426495    1.73640191300682
H        -0.55868661413297    4.90979537743254    2.40346234458370
H        -1.00343218648010    3.25675799931589    1.97189883671340
H        -0.52277813340771    4.38426229832097    0.71056048271677
C         1.49595305760192    2.55692833819011    0.89405039558147
H         1.46105115281700    2.96425177816618   -0.11497273353386
H         0.80393493311635    1.72082096349892    0.95097979005825
H         2.49895581005521    2.18382012165622    1.08299433468704
N         1.91094245663980    5.68281823328838    2.99782856097151
O         1.68191767050035    7.02396319831838    1.25362246025901
P        -0.19943498691397    6.30245666737500    4.98903914877344
Cl        1.09130000639083    3.86382569814820    6.76747105455783
Cl        3.52554508998345    3.79833917768156    4.72599128829935
Pd        1.56976353576065    4.89652324114270    4.85473657104767

