103
CSD_code = OPIGUQ | q = 0 | S = 0 | Stoichiometry = C38H60N2NiO2 | MND = 4
Ni       21.14139075459178    4.92955841918095   -0.00083109323814
O        22.20808372628607    5.52910651252390    1.35950489390221
N        20.39335550526119    3.52309182764057    1.18092363486432
C        22.51396548765885    5.04155777344891    2.50600805116919
C        21.88326010607411    3.89399187358869    3.06634001222413
C        22.28106487230266    3.42257895916529    4.32898832059943
H        21.78814304087702    2.54895813709035    4.73333698054531
C        23.27375490040615    4.04470866768400    5.03851839557266
H        23.57606573271791    3.67148995687976    6.00484686476935
C        23.89512552737276    5.17693161070298    4.50039502863401
H        24.67718449977476    5.66980146109038    5.06042645906182
C        23.52748820818807    5.66657156424130    3.27687253418208
H        24.00499514817253    6.54125405882918    2.86159910846298
C        20.83199361446907    3.24828943090920    2.36341346367600
H        20.34794492922160    2.43567421955149    2.91360644357630
C        19.23305811368834    2.77062537298355    0.73818446706589
H        19.09598890593616    1.87813797036077    1.36277189278253
H        19.39055153638068    2.46016466931503   -0.29663101052396
C        17.97948227384527    3.64997907355985    0.80561586317369
H        18.19570357489529    4.58399740324541    0.27948539104380
H        17.76054234407768    3.89391138470327    1.84824051930517
C        16.77586102550747    2.97034133888846    0.16127858708744
H        17.05078425644136    2.63500041082475   -0.84074608584232
H        16.49543376602279    2.08665637056763    0.73997401998866
C        15.58107426032915    3.91419903850405    0.05473718356390
H        15.88304547801932    4.80660952362872   -0.49834820149026
H        15.27488395201886    4.23209616502743    1.05405005408950
C        14.39823569349601    3.26220544844043   -0.65693788342967
H        14.71752327548917    2.92506914870969   -1.64602994688915
H        14.07554464458615    2.38138979308648   -0.09663655791880
C        13.22268817814708    4.22355704765316   -0.81225406599866
H        12.88619299664135    4.54768633482478    0.17535654722981
H        13.55604271231589    5.11171213356521   -1.35430590663837
C        12.05474834703198    3.58717729413454   -1.56153061318223
H        11.70759248921580    2.70846780916892   -1.01271972158293
H        12.39859772240801    3.24823062994085   -2.54177013638823
C        10.89270230155585    4.55991041658172   -1.74606123212795
H        10.54268882018223    4.89520235063887   -0.76682167660839
H        11.24407189133371    5.44065574036606   -2.28900445739789
C         9.73093601592891    3.92851930103876   -2.50915800891742
H         9.37293942512029    3.05285050936654   -1.96226484155904
H        10.08510042156404    3.58497434405937   -3.48420134232967
C         8.57529651584642    4.90567813631648   -2.70948822198701
H         8.93429398134803    5.78132457300176   -3.25577381555239
H         8.21910271895237    5.24876624593339   -1.73509005586538
C         7.41522890287774    4.27541277687762   -3.47635614064307
H         7.05241961838327    3.40311083071877   -2.92763328382367
H         7.77290743702412    3.92818921272938   -4.44857289866894
C         6.26858959562866    5.25795088498113   -3.68069784006191
H         5.45349243805597    4.78843498285452   -4.22671735843812
H         6.60547375387781    6.12486253212203   -4.24521505506804
H         5.88620113428015    5.60262534893421   -2.72222103962027
O        20.07617063135272    4.32859703387275   -1.36167951312065
N        21.88768707011964    6.33751969191586   -1.18189493644826
C        19.77074867642790    4.81521146483398   -2.50868510578800
C        20.39997386539704    5.96381309818686   -3.06856173929982
C        20.00260273221965    6.43430635354060   -4.33169499216756
H        20.49433564102712    7.30876917107040   -4.73567167232100
C        19.01184545157457    5.81020155579085   -5.04218592615173
H        18.70987327019639    6.18269554009243   -6.00890008193813
C        18.39206363281397    4.67685966902948   -4.50457894645250
H        17.61162887895373    4.18235626194556   -5.06543534384826
C        18.75926617343956    4.18813806269703   -3.28056127947105
H        18.28306262001060    3.31252198489078   -2.86574064550565
C        21.44934788784356    6.61154938354725   -2.36469145030179
H        21.93214182911896    7.42523607840463   -2.91440406951053
C        23.04607760365495    7.09249904523450   -0.73836487220564
H        23.18081948189657    7.98598279792492   -1.36203700702712
H        22.88783773801143    7.40148478222594    0.29677269024829
C        24.30193204106084    6.21648712807210   -0.80677202963345
H        24.08847324286321    5.28179232535505   -0.28077508767435
H        24.52091353075877    5.97341410480556   -1.84958704832805
C        25.50414292641098    6.89911863653832   -0.16293842913733
H        25.22844469583537    7.23494503465275    0.83871887118349
H        25.78294908272402    7.78279953951606   -0.74241723590262
C        26.70069218758993    5.95761677509888   -0.05530731799965
H        26.40026371002574    5.06515423169415    0.49853923210375
H        27.00764494431605    5.63936487977490   -1.05427068259783
C        27.88221610469833    6.61238333628026    0.65600644263982
H        27.56206851630368    6.95010640558352    1.64462213552391
H        28.20365562867797    7.49309826752965    0.09483002003892
C        29.05924287909421    5.65307928940274    0.81278152721867
H        29.39664300704398    5.32846963789723   -0.17436124667712
H        28.72707058796000    4.76495080788012    1.35560599544935
C        30.22588959280956    6.29202643315563    1.56188629594970
H        30.57196177491661    7.17068433980666    1.01231014293832
H        29.88111138476309    6.63147269276184    2.54162653408434
C        31.38929529118882    5.32120620561946    1.74792111025188
H        31.74030568936650    4.98552659499748    0.76917213840180
H        31.03894876053639    4.44044230072215    2.29149638057050
C        32.54974233155433    5.95499251176693    2.51103688561809
H        32.90672591817273    6.83070670968607    1.96355349586448
H        32.19458611313381    6.29886919904024    3.48560163913226
C        33.70670050903916    4.97968935029518    2.71279881348692
H        33.34867263528538    4.10394281382376    3.25956435219041
H        34.06395000370248    4.63636226546329    1.73887266484427
C        34.86541192359081    5.61224034809245    3.47983225484828
H        35.22724534631003    6.48466581541128    2.93065981070082
H        34.50668427870365    5.95966004641689    4.45159110926443
C        36.01337421862876    4.63153510376318    3.68554296473303
H        36.82747283139025    5.10264315115895    4.23167953309607
H        35.67744046739043    3.76454260115127    4.25050316387035
H        36.39680808826713    4.28672212151798    2.72753423057627

