48
CSD_code = OPIQAH | q = 0 | S = 0 | Stoichiometry = C24H19ClNOPPd | MND = 4
Pd       -0.47065096465155    4.56698950617029    7.34270295306102
Cl       -0.36907638402644    2.41789513859030    6.49885208248151
P         0.32432546651148    5.31550374405090    5.42791852112764
O         0.25676772731108    6.91926387152042    5.25499499208620
N        -1.27657621341299    4.04327345734454    9.14688761137376
C         0.63743970757652    7.72102994344171    6.36749409060180
H         0.65361108110547    8.74669934300911    5.98670355669362
H         1.65863562251258    7.44986807530533    6.67709555339852
C        -0.27702771716314    7.63354174314332    7.57400998113475
C        -0.64770620282534    8.82110504614232    8.19531657374597
H        -0.32992693713193    9.76633082209958    7.77704268884472
C        -1.41628749748892    8.80698624292364    9.34711932055982
H        -1.70474824538854    9.73700355317713    9.81386487973222
C        -1.80390903015924    7.60446082472094    9.90258887357247
H        -2.38963476875515    7.60517247524333   10.80966983374799
C        -1.44133820300279    6.40541804924369    9.28952752700398
C        -0.68178556226546    6.40619182992308    8.09805395919196
C        -1.76256588242587    5.08966521393473    9.84702656820087
C        -2.48159735478045    4.86907092840341   11.02256723150909
H        -2.87979171391535    5.70207411113450   11.57886078010005
C        -2.68643226196149    3.57702819005437   11.46912819516720
H        -3.24262491367224    3.39664869663734   12.37720681573099
C        -2.16914942575712    2.51961811291098   10.73568222645899
H        -2.30540394545068    1.49803763176618   11.05156602961904
C        -1.47245987428322    2.80226962585599    9.57262069387480
H        -1.06166163595108    2.01134613977069    8.95272014700935
C         2.11514784559742    4.94503965735573    5.43878687507361
C         2.93392538721656    5.21493598866640    4.34935893177689
H         2.50211881197165    5.63529283644663    3.45138745522972
C         4.28748215640475    4.93939845398656    4.42439468901811
H         4.92769450412085    5.14387814155538    3.57872907828706
C         4.82187440103415    4.39549185782471    5.58217946932741
H         5.87811319975809    4.17588962369465    5.63432697348694
C         4.00768152504770    4.12969505060393    6.67204730181883
H         4.42952080275055    3.70453482717261    7.57066741688299
C         2.65388570007042    4.40722827752736    6.60296842400425
H         1.98753010728179    4.19426265018019    7.45311640793888
C        -0.21737619330699    4.83276121138698    3.77301537484788
C        -0.96312004698195    5.69147031369600    2.97480680064213
H        -1.20943651159972    6.67729234519151    3.33913415015777
C        -1.37628608784464    5.27592233824783    1.72129986322999
H        -1.95182068943540    5.94353184880314    1.09653834144849
C        -1.05916469553710    4.00513279609569    1.26985519987500
H        -1.38719345505476    3.68350584728192    0.29212180306449
C        -0.32853698161607    3.14333854335244    2.07305908453792
H        -0.09010157134321    2.14968415992476    1.72402274732516
C         0.09223021364800    3.55230938213902    3.32469848859384
H         0.64670670726521    2.88311153234791    3.96736343740706

