103
CSD_code = OPIRAI | q = 0 | S = 0 | Stoichiometry = C56H38N6NiO2 | MND = 6
Ni        4.43906550595962    7.06295319250553    6.12361132789401
O         5.77446784071990    6.91514478074510    4.86713056233870
O         5.47026836935145    5.47465396704323    7.38297761712269
N         3.71822744846641    5.37457548928698    5.20795736575139
N         4.63279023006767    5.02605570556982    4.27253928800602
N         5.76284498228585    8.08627522041905    7.24964744505088
N         6.43157900795187    7.39377733274994    8.16314694711650
N         3.27650849886005    8.31922539234516    4.73093937444293
N         3.03838640201220    7.38635426412556    7.24449709045591
C         7.61231473509468    6.50980767699574    2.81485586955362
H         7.62013107978770    7.43986694246083    3.36137662783179
C         8.55205490421244    6.24876106119457    1.83579255924247
H         9.31405517136873    6.98093660292226    1.60947202915803
C         8.51969422926303    5.04879709876159    1.14476507054328
H         9.25622132337160    4.84406016685245    0.38106217758833
C         7.54190236640275    4.10999661369154    1.43520472565100
H         7.51882890554850    3.17359385524494    0.89659223955428
C         6.59964733147658    4.36556597393200    2.41309816346843
H         5.83327137543767    3.64634886045858    2.65339313902287
C         6.62912395874398    5.57039118210724    3.10998732951823
C         5.62063542794618    5.87175911485640    4.14943194133980
C         3.12103424873518    4.40985151715678    5.81286874958086
H         3.47616868949080    3.39076375021836    5.64578353641610
C         1.96577685429252    4.56652652739904    6.68815522635035
C         0.79501572600485    5.20308536297008    6.23299330115575
C         0.68979831958819    5.77092939389856    4.93798643738660
H         1.54255415392781    5.71843136123667    4.27851376098064
C        -0.46036362522058    6.36955744491953    4.52085576871045
H        -0.52296520283919    6.79377506388641    3.52902535768608
C        -1.58392173750756    6.43411424513685    5.36883204964868
H        -2.48604008128286    6.91308449454483    5.01690155673806
C        -1.53179809218360    5.88295452662415    6.61106606262007
H        -2.39182841226126    5.91193399437224    7.26547099966121
C        -0.35490292098337    5.24699651018658    7.08275131020878
C        -0.30476625477587    4.66528736277477    8.34539898175824
H        -1.18287048839043    4.69412699645483    8.97614410880428
C         0.85475886072361    4.05768711820148    8.81786895153147
C         0.93059261328638    3.50355946396448   10.12107657279041
H         0.04397963609300    3.52836036348499   10.73936906201174
C         2.09211123395621    2.96873927825415   10.58813179327831
H         2.14343502596579    2.55654958003784   11.58557461384048
C         3.24635953798814    2.96220876021537    9.77884807427258
H         4.16811371638008    2.56484219273874   10.17750686384414
C         3.20491116314477    3.46160248519343    8.51191232691873
H         4.09498783768274    3.49197390382585    7.90444998459309
C         2.01115334953720    4.01190756150144    7.98206997040033
C         6.86658812889690    3.97206938777572    9.31971978862427
H         6.44477136192411    3.45158330514018    8.47313533173079
C         7.44416360648025    3.27885051015470   10.36636748545741
H         7.47160267595389    2.19835851956686   10.35040063604491
C         7.99193706525667    3.96926806425844   11.43529343240343
H         8.44367162409744    3.42807192687846   12.25431302082633
C         7.96663143580337    5.35529080275754   11.45080869354198
H         8.39847595439903    5.89166156955303   12.28381374347479
C         7.39111134133770    6.05176863897240   10.40505165270680
H         7.36365790986798    7.13024072907431   10.40117986794540
C         6.83302526877557    5.36295435317656    9.33252319443602
C         6.18667978885024    6.08285141512428    8.20814224140647
C         6.20008214075709    9.24669405812491    6.91282353403839
H         7.15842207409674    9.58880461342472    7.30580577755552
C         5.44436769931674   10.14346309820260    6.03565631240622
C         5.96424942429713   10.48128219250747    4.77537527813653
C         7.20078236956026    9.96387220015027    4.31419441600438
H         7.75293683007861    9.30237020226616    4.96412135623540
C         7.67680194894540   10.28165678075119    3.07811663027399
H         8.62069031794113    9.88310712365739    2.73578980842283
C         6.94413300002358   11.13266931186714    2.22552310981458
H         7.34047232174442   11.36934637858609    1.24879008959662
C         5.75070175816170   11.64648840717351    2.63034856746377
H         5.18163152527360   12.30010868056946    1.98399821546355
C         5.22118166659160   11.34113118224407    3.90998861751776
C         3.99419686828931   11.84358002583506    4.33398270491814
H         3.42772126279407   12.48594344210738    3.67326305112156
C         3.48464920690682   11.54578385461102    5.59352704233146
C         2.24682963490920   12.07618380593381    6.03855157927844
H         1.69187400616986   12.71169435599286    5.36267929004749
C         1.77378228525299   11.80554682375267    7.28486044389294
H         0.83196886476323   12.21736704370063    7.61698129492217
C         2.52197770175327   10.99820521946430    8.16527316137474
H         2.14649849272980   10.81734597587357    9.16229772688711
C         3.70750467664271   10.45726598269282    7.76999667201280
H         4.28122724823556    9.85000122527231    8.45446398268304
C         4.22218850159832   10.68813574976469    6.46835060948864
C         3.41002578851699    8.73822507241942    3.49466475917269
H         4.35030506579955    8.50908747825181    3.01071297823526
C         2.41200081458076    9.44616413262322    2.81707124284666
H         2.57946795219602    9.76468078384160    1.80015150024379
C         1.23639073105111    9.72948802714807    3.46870886699434
H         0.44405332432176   10.28105879285446    2.98265839263833
C         1.06422768395497    9.29118606561093    4.79094916360468
C        -0.11703784366815    9.52640902237520    5.54653929888133
H        -0.92176619907560   10.07610382776810    5.08080950727772
C        -0.23034118781755    9.06965872282167    6.81554299047356
H        -1.12803272616373    9.24568406441678    7.38948909969013
C         0.82131404273392    8.33895914259228    7.43681058522526
C         0.73140528463046    7.85217554313540    8.74891326194786
H        -0.16363384782795    8.02859467465453    9.32652402356594
C         1.79452445414217    7.15597903327004    9.27045610084130
H         1.77062602647940    6.76221839747453   10.27404375405768
C         2.92471105183568    6.94287520902335    8.48326155375614
H         3.75925091467711    6.38810609278185    8.88888739767655
C         2.00817213229641    8.08411868671093    6.71755326378412
C         2.12793530326825    8.57506051968494    5.37930958672309

