96
CSD_code = OPIWIV | q = 0 | S = 0 | Stoichiometry = C43H46Cl2N2P2Ru | MND = 6
Ru        3.05524593999808    8.36150373729280   10.35475513173611
Cl        5.26648443950852    8.64570874686803   11.24601570309548
Cl        1.03252798532020    7.46651412451890    9.42309933983549
P         3.66558486216689    9.59597261437407    8.55129920162054
P         2.12965129419590   10.18377864851800   11.35386362626784
N         2.75476508877418    7.02420118949910   12.03901881894558
H         1.90907631085157    7.17223345071184   12.59113600480218
H         3.55866086190537    7.21512253015488   12.64449782246344
N         3.83160783519312    6.50563001117633    9.54668326199508
H         3.06091277409276    6.21912816146596    8.93179011258114
H         4.68184305680450    6.56883581024009    8.98464420682427
C         4.31965047625141   11.28712016405039    8.96779725648234
H         5.11591740181113   11.11794779317199    9.69944108153748
C         3.20346128785372   12.12745512487676    9.60408275789902
H         2.29044895015032   11.98269043612051    9.01628697409195
H         3.48459374568087   13.18306401045115    9.51530141559511
C         2.91785361624948   11.85301911368003   11.08717932644977
H         2.17844073472349   12.59106620324973   11.43206733483102
C         4.88971428531800   12.01839179242235    7.75405434403594
H         5.61348260237858   11.40256324667269    7.22437989116420
H         4.09500841082571   12.29069385644124    7.06162641196345
H         5.39076572645658   12.93099076891669    8.07508225484222
C         4.17472277563623   11.99876111231859   11.94488244309659
H         3.91073259838182   12.12957672524702   12.99188599697263
H         4.80653947512905   11.11657864803781   11.86503224231933
H         4.74592262948670   12.86934258658468   11.62524008653865
C         2.81158162315630    5.63544323570629   11.57816098864935
H         1.88984588852959    5.43787681840349   11.01445231106335
C         4.01097767552040    5.51527923531888   10.60829327680391
H         4.92744503920532    5.77690143486570   11.15605272261506
C         5.04339594217224    8.77486687213156    7.68887285303960
C         4.72330767360212    7.76980339052072    6.77393359321868
H         3.68261097056798    7.59445706638008    6.52831559369429
C         5.71838549366182    7.00866143514568    6.18967702121856
H         5.46041157641325    6.23807640528010    5.47725150595651
C         7.04533766792022    7.23049634748173    6.52497699587661
H         7.82412182557596    6.63615611895693    6.07007047074131
C         7.36850746988485    8.20619602047297    7.45349607575515
H         8.40058984479236    8.36824011320203    7.72831400082853
C         6.37548136071331    8.97155479486226    8.04041040930778
H         6.63685253330777    9.70788826664129    8.78506831658980
C         2.52655110317479    9.99499204247244    7.18492426772192
C         1.17970425549329   10.14512210819462    7.49539408524276
H         0.84615956517425    9.94545632126973    8.50382969929396
C         0.27054849556160   10.51412062170811    6.52065715984874
H        -0.77337680074009   10.62316369084824    6.77625264282579
C         0.70110866726649   10.73320412825777    5.22331433751098
H        -0.00559141267399   11.01758819972702    4.45711884617337
C         2.04134266278417   10.57908886069329    4.90468935986715
H         2.37799627156673   10.74523689634581    3.89109584779935
C         2.95339536861673   10.21406157244874    5.87768743103306
H         3.99567341299791   10.09170160448580    5.61831236446563
C         0.36116102442540   10.46398750866505   10.99274860016603
C        -0.47548560462239    9.40413682982707   11.34193215856806
H        -0.04588670790799    8.53592507253068   11.82587562020805
C        -1.82767594439433    9.44956232323594   11.06961325376309
H        -2.46121951297833    8.61724614385418   11.33857497791169
C        -2.36660943022045   10.55961546011998   10.43856786347766
H        -3.42267519441653   10.59638930803855   10.21419724662429
C        -1.54707958533154   11.62009453495311   10.09455354448324
H        -1.96340356883654   12.48925737383913    9.60512837538079
C        -0.18966977038258   11.57600852021561   10.36687057873256
H         0.42743953320101   12.41527581698973   10.08323052228017
C         2.06353605955988   10.17926088907334   13.18611366373853
C         3.14016577855578    9.63656123986948   13.88405747526153
H         3.99032924025803    9.25897506160070   13.33102297417425
C         3.14290094327692    9.61607659478560   15.26659228389072
H         3.98430948070847    9.19448719080795   15.79754439566453
C         2.07068546624608   10.14047763115585   15.96978511555579
H         2.06802305190747   10.12145319488604   17.04984028316888
C         1.00494992456734   10.69808425035569   15.28328939696733
H         0.17279417110836   11.12004713444811   15.82834964824172
C         0.99907026979454   10.72124883619052   13.89964368709296
H         0.16336391910940   11.16144609384676   13.37454555809028
C         2.95783763106964    4.63024003235078   12.69613098782669
C         3.91954805195306    4.79941404386227   13.68526610175898
H         4.56281930531843    5.66898425228098   13.68231663981864
C         4.07617651586764    3.85046922853360   14.67923978049960
H         4.82662316214451    3.99309340850277   15.44276382556597
C         3.27912754388473    2.71883879360725   14.69213110829581
H         3.40507750853130    1.97686331481737   15.46637382634048
C         2.32253711128621    2.54111723236291   13.70758616648451
H         1.69930389826023    1.65936312628691   13.71063319204703
C         2.16245072152759    3.49244627064830   12.71639351624746
H         1.41752388996975    3.35062982592428   11.94686118057485
C         4.11397641635383    4.09745447064228   10.09693189334212
C         5.13686920763922    3.26816468286274   10.53541068762789
H         5.87695729840188    3.65195317167554   11.22297729983946
C         5.21047677357239    1.95606227210294   10.10330866325418
H         6.00994617301101    1.32000133058157   10.45311196796680
C         4.26175708762841    1.46057626660065    9.22582978534966
H         4.31814630378416    0.43645848333171    8.88818104509786
C         3.23831559785732    2.28173111606491    8.78418003166111
H         2.49338086781610    1.89946720384003    8.10197855693601
C         3.16198834885955    3.59235032422179    9.21899439760408
H         2.34765770228907    4.21657993052071    8.87715689729168

