34
CSD_code = OPIYAO | q = 0 | S = 0 | Stoichiometry = C11H17I2N3Zn | MND = 5
Zn        6.48759255301206   14.58994707595213    8.25398353553448
I         6.58231706036812   13.79212504130255   10.65918256864783
I         5.61927057019204   13.51463488632876    6.10956919306721
N         8.64886083760838   14.09772061941085    7.82143843835851
N         7.41960158434726   16.40186309078812    7.48394885580858
N         4.84279701545936   16.29826812482371    8.57173392660262
C         9.16065546266190   12.88422869230867    7.89881000216548
H         8.60290582333677   12.16782304940365    8.48744829698208
C        10.34371138706143   12.52821125355572    7.26804068448010
H        10.72720238237623   11.52497362511927    7.35638685662434
C        10.99992528919729   13.48910750167005    6.51758870021487
H        11.91142283887113   13.25053149180051    5.99053407404994
C        10.47143926625916   14.76825605702994    6.44944512750893
H        10.96076598183407   15.52352746183099    5.85624172813413
C         9.28814533026865   15.04314470003056    7.13086600126602
C         8.63369625848695   16.36216065854620    7.10592669593768
C         9.41130494199787   17.54985980032394    6.62984161197161
H         9.26114312377083   17.68144519823400    5.55733270106324
H        10.47298481940234   17.42395799952576    6.82007315805210
H         9.07441782993468   18.45371530513190    7.13327610635140
C         6.62803496559036   17.59574033098162    7.44072020117231
H         6.81622622297747   18.17463428120233    6.52864777381776
H         6.88456969629615   18.22770572973174    8.30005896915422
C         5.14576524472961   17.21960008047040    7.48168716165175
H         4.54479321549164   18.13967799917148    7.55572584114180
H         4.89397047146933   16.72347200551144    6.54093063279026
C         4.93712614190881   16.97338067679816    9.86269693618107
H         5.96240558989193   17.27673481581151   10.06477798947509
H         4.63101743021313   16.29094854097842   10.65255346045889
H         4.28923309267917   17.85922100996671    9.89698412279046
C         3.48380723037457   15.78365206096906    8.41495502605077
H         2.74215982582025   16.59027002276075    8.47296093338450
H         3.27729229434330   15.06266237417090    9.20481868546441
H         3.37693822176603   15.28429843835919    7.45391400364577

