42
CSD_code = OPIYIW | q = 0 | S = 0 | Stoichiometry = C14H22ClNO3Ru | MND = 9
Ru        1.02453184246748    5.32324373553842    3.26302758171252
Cl       -0.58878731354574    6.04756415046366    4.78152882048447
O         2.22064698926201    6.97060590364172    3.71165366009873
O         3.81874213157505    7.69279124226074    5.06178455160159
O         4.64614124973986    4.99144864345497    5.98437203028670
H         5.04371218587916    5.73146462584519    5.50734733388853
N         2.01180002347326    4.69307683895937    5.04804781008711
H         1.40223013565516    4.10901832986642    5.62699749616453
H         2.87957373452363    4.17086968039107    4.86214415030162
C         2.87606865471006    6.97049363363698    4.79676574852673
C         2.42267266349685    5.87647244238513    5.82802501163206
H         1.56192921598641    6.27039973665795    6.38035841488458
C         3.59142247422913    5.52255439913094    6.76636453030927
H         3.91346731801646    6.44968774705862    7.25695718162896
C         3.20177436000334    4.49178313565497    7.82003886787324
H         4.02743297414848    4.35239114439972    8.51159873114584
H         2.98866505514322    3.53109517416129    7.35745817461694
H         2.33049351162859    4.83177423614451    8.37198156964668
C         2.12496682216009    4.72933161153912    1.33616685926389
C         1.63495161200351    3.57843595111233    1.98347173762413
H         2.30208860713706    2.74351090961158    2.17160397782784
C         0.25062667423190    3.42137305785761    2.27223315390171
H        -0.11160376156080    2.47735989857880    2.66620105251932
C        -0.66451498855028    4.44288150814099    1.95985112430202
C        -0.16653061505442    5.63920991151526    1.37210468225420
H        -0.86229447776281    6.42301212987674    1.09302721286667
C         1.20011949375278    5.77250365614828    1.07200320953917
H         1.54846461215045    6.67063694925876    0.57190943392460
C        -2.12394105202383    4.29784016684344    2.25120193448778
H        -2.72268183656761    4.70829111911383    1.44072066480197
H        -2.35896005901594    4.85549486983064    3.16147509426373
H        -2.39293753476842    3.25637402840088    2.41017738723047
C         3.57103260251013    4.85053142320298    0.91864641627398
H         3.69389776057783    5.80996897838341    0.40510405157839
C         3.94814233240404    3.73154632518757   -0.05664459768284
H         4.96078767460433    3.88600571018813   -0.42038229525490
H         3.27300666825007    3.72271991234357   -0.90995792505324
H         3.90596204271441    2.75834943337423    0.42709033802964
C         4.49297367545077    4.85373219541173    2.14057225078957
H         4.21374532957460    5.66631217220807    2.80835776735040
H         5.52356465110069    5.00657258961045    1.83053091361525
H         4.43631656028954    3.90977069261388    2.67928389065787

