55
CSD_code = OPOGIK | q = 0 | S = 0 | Stoichiometry = C28H19IrN4O2S | MND = 6
Ir        4.43958279884952    2.95755160317022    4.36602439679163
S         7.80257145670863    4.00257355983979    1.93575017395694
C         6.39509706114595    3.03660632595350    1.69413102678009
O         2.96188702457099    1.70240164207306    3.26829142826263
C         4.59537096609193    5.75565270578931    3.74889549711043
N         5.36975112945039    2.65951347593320    2.41556075202488
C         3.27812455651172    1.31628003777481    2.11166463221277
O         2.65322577823071    0.57003669472007    1.37485322572602
N         6.32930222179323    2.53555621147057    0.42123080116399
C         5.37391112705452   -1.36221791071193    6.14935667363609
H         5.49795858141341   -2.36580011629477    6.52709304307354
C         5.88935721598340    4.17660472744978    5.04197286320372
C         3.52433974438194    1.84850024081684    6.85513795507306
C         4.53225551479049   -0.47013456250771    6.78126936933210
H         3.98670145787515   -0.76961937000490    7.66105494428234
C         5.85137712275090    0.34509293825537    4.56187378800314
H         6.37372056027806    0.69833004091099    3.68304520682873
N         3.77712313145471    4.68219977902844    3.62745230819884
C         3.05625940911416    7.09712274305276    2.48368759775039
H         2.77640542789195    8.03799163457963    2.03417380682430
C         7.91157410206751    6.07693296498942    5.50181245375091
H         8.69435770420589    6.79944452381130    5.68014855808933
C         5.80045500211016    5.48810325206196    4.51994377059479
C         6.05859314381014   -0.94168299972244    5.01693995107901
H         6.73242118124824   -1.60010680394778    4.49254446490732
N         5.02983319795982    1.20793580630690    5.15527742012288
C         4.37118477609577    0.81954349173203    6.27374629852613
C         2.82121524963792    1.70062235063370    8.05085817096380
H         2.87399181862863    0.77767546746747    8.60938389767874
C         7.01359971833777    3.86482460967562    5.80033363958964
H         7.11517344941660    2.87582857071247    6.22618672662677
C         4.24708988616232    6.97674112893985    3.17379192951592
H         4.90680076883455    7.82358199149498    3.27258167222717
C         8.25880492032226    3.68822694082683    0.27838709584710
H         9.16319263940867    4.11370745440951   -0.10482243779827
C         2.22467277003518    5.98916299346090    2.38364324070559
H         1.28332750723797    6.04140073735765    1.86081261704314
C         1.97899371439908    3.92772625806929    7.81941489199478
H         1.37617286633702    4.74202351734187    8.19630913838458
C         4.59607300015962    1.88721401432541    1.58590065526196
C         7.38184529454402    2.90531719026677   -0.37527758057187
H         7.43865226206115    2.57231309868987   -1.39468255329874
C         5.17662915861406    1.79911476731271    0.34878071724184
H         4.85633509105902    1.28483519264063   -0.53142677354245
C         2.67383332381115    4.07784419579719    6.63110950846293
H         2.59994656394010    5.01877529065802    6.10251966345950
C         8.01038345696861    4.79818824753517    6.03002075097448
H         8.87215920635640    4.52991730620129    6.62487529183928
C         6.80794994306513    6.42413642682900    4.75063761062797
H         6.73550697709479    7.42108910638128    4.34058325082853
C         3.45988586882529    3.05080655222393    6.11816535318962
C         2.05037821261577    2.73895685388575    8.53008881704307
H         1.50425064177856    2.62633441401458    9.45523641362381
C         2.62574007770337    4.80471995699065    2.97122473258984
H         2.01065421880508    3.91610272932645    2.91983115218453

