38
CSD_code = OPOJIO | q = 0 | S = 0 | Stoichiometry = C16H17ClN2OPd | MND = 4
Pd        1.58563176240368    2.56124186802478    5.39091291042307
Cl        2.08052658540676    3.44950790292940    3.30989868123088
O         1.22746946412047    7.24498864167087    6.08119368484966
N         1.29203600826473    0.62887676668621    4.90881842910751
N         1.60112335472389    4.40206639282180    6.49563128072462
C         1.45779219160111    0.11447915650138    3.69631595102199
H         1.78885461544665    0.80105454350094    2.92307366936318
C         1.22241408410724   -1.22267144662063    3.41908518276946
H         1.36914461597107   -1.60073997175732    2.42044200728105
C         0.79812382851942   -2.05232746722936    4.44704221662518
H         0.60667758356666   -3.09924307080200    4.26502111906600
C         0.62455258140882   -1.51849700272321    5.71103194311246
H         0.29730785103576   -2.13866309160213    6.53044219487621
C         0.87642700229077   -0.16675839783745    5.93288396673777
C         0.74558595167528    0.52670865388805    7.21095434015932
C         0.31903515081190    0.02731386447182    8.44187750371905
H         0.02486977805151   -1.00609742386460    8.55446747124626
C         0.26768953435929    0.87810994459553    9.53251015167570
H        -0.06855745998667    0.49612408289023   10.48525704943123
C         0.64051855965973    2.21605594102947    9.43582222980227
H         0.59086239374341    2.85006286298786   10.31056566581499
C         1.07500231409653    2.72022557025915    8.21912054027104
C         1.12152788957622    1.87071338263828    7.12211302416187
C         1.57018511603538    4.12566711317429    7.96090908843318
H         2.59449552932428    4.20610631135141    8.34305343945718
H         0.95696831542554    4.86237027124413    8.49227508527018
C         2.69013253100343    5.30804389992405    6.10321658014695
H         2.73483281387901    5.30845829606195    5.00680566677247
H         3.63870003975772    4.92732389839567    6.49307454773662
C         2.44403888297728    6.74048255077387    6.58668013704336
H         2.44062615285979    6.78511783867099    7.68802013175544
H         3.22379867848586    7.40436511729279    6.21037224475296
C         0.13958134101056    6.43615854492831    6.46461361837258
H        -0.73935376273199    6.86123022125105    5.97671595267966
H        -0.00450777713528    6.49987284961096    7.55551692720392
C         0.32832500893733    4.97926040746290    6.01717888460218
H        -0.50545507123040    4.36280335051077    6.37828232352209
H         0.34991656054687    4.95890762688765    4.91700415878089

