33
CSD_code = OPOJAG | q = 0 | S = 0 | Stoichiometry = C14H15ClN2Pd | MND = 4
C        -2.79905129474280    3.46824878174241    4.32458423445972
H        -1.74541076797303    3.70610112662041    4.21357562370296
C        -3.73552414603746    3.89962945688498    3.39883474365511
H        -3.42515607611062    4.48679681114536    2.54985580221080
C        -5.06718197187794    3.55960975413224    3.58945213221347
H        -5.82242294275463    3.87854592949998    2.88673658405034
C        -5.41472146374341    2.80528182180169    4.69528440622058
H        -6.44161557620722    2.52672331262527    4.87153774146468
C        -4.43161030789218    2.40072546717911    5.59521800631041
C        -4.65487585989149    1.61407546962705    6.80481674692100
C        -5.84383513122242    1.07075349659374    7.29373013210764
H        -6.77756609544428    1.20452221639515    6.76689114603464
C        -5.81779920187771    0.34164271000088    8.46976580314632
H        -6.73562901625853   -0.08536710711452    8.84675776607977
C        -4.63845547212824    0.14274217538507    9.18388700363815
H        -4.65743321211111   -0.43081624259443   10.10048227799838
C        -3.45363791846093    0.68489503445947    8.71146083785814
C        -3.47649444256587    1.41640332366324    7.53032334014084
C        -2.09964946297101    0.62787709339909    9.38235152057796
H        -2.08050473127773    1.38359650136562   10.17620302652365
H        -1.90217266242073   -0.35004372191715    9.84460439407751
C        -0.60095892878143   -0.26485113958762    7.70779740888655
H         0.12606061980164   -0.00405254484072    6.93154998051320
H        -1.46779970643655   -0.74779622384918    7.24147301807094
H        -0.13416806353492   -0.97095291533759    8.40933759892391
C         0.11948936576542    1.57467427270626    9.06104321235506
H         0.55910733519022    0.90430341247229    9.81173295148195
H        -0.19071926286533    2.50360086340331    9.54339100281998
H         0.87238159453219    1.81537206100607    8.30804990783699
Cl        0.18827366675112    2.65885421159705    5.80973648447792
N        -3.12998868468446    2.74372144508065    5.38658108460204
N        -1.02797631675674    0.95526479986788    8.40235851437758
Pd       -1.83315386501178    2.03931834658708    6.75439556626165

