99
CSD_code = OPOPAL | q = 0 | S = 0 | Stoichiometry = C48H38F4N4NiO4 | MND = 6
C        -8.88270435985808    2.04660887338552   10.35023850109268
H        -9.60220137647208    2.86059506428011   10.42122823650648
H        -9.42141091889131    1.13121811968012   10.12448031079802
H        -8.20389366647106    2.27150979213600    9.52935449579207
C        -8.13030537989170    1.89599571393300   11.61827683036122
C        -8.14176809753146    0.89603738921046   12.57106864899416
H        -8.72637931248946   -0.00093989259245   12.56034998545602
C        -7.23019642405760    1.28957934170948   13.56131057022851
C        -6.87437723622336    0.59333463488733   14.82313111920743
H        -6.35098433660285    1.29209307538156   15.47118702118754
H        -6.22308924828176   -0.25462158695501   14.62034120485045
H        -7.77072297901593    0.22611661568657   15.31853368395630
C        -3.84743628023484    4.74354957962870   12.63425727652771
C        -3.03988210500725    5.67333534862077   11.79782878070622
C        -1.71816275538564    5.95076300452790   12.15289530716421
C        -0.98166403808710    6.83982404333165   11.37646359611383
H         0.04305250838115    7.05075513117910   11.64453024577844
C        -1.54429778211948    7.42520328568959   10.25674990144252
H        -0.96106570239389    8.10725485449037    9.65581422062698
C        -2.85101553732797    7.14073455251305    9.90338054476396
H        -3.29573426530597    7.60936954939664    9.03782714103165
C        -3.61628468057198    6.27274022325443   10.67504698812061
C        -5.02600596412878    6.01660594404841   10.33264540695316
C        -6.02380347114572    6.17526213673390   11.29149955910604
H        -5.77855348429248    6.50135338303193   12.29028989938040
C        -7.34873385588662    5.91869350563617   10.98531125102083
H        -8.11369824727635    6.02558998424004   11.73857355936538
C        -7.66536609456760    5.51912054281824    9.69868322054247
C        -6.69957823102852    5.36991096586351    8.71982176628246
H        -6.98428825887143    5.06028229445703    7.72641429871713
C        -5.37907346778711    5.62228827049154    9.04495628752686
H        -4.61041914445109    5.49371044335525    8.29759367011151
C        -1.09764660064385    5.28133785677728   13.30841502046293
C        -1.15732075052549    3.89575685533675   13.43433687131664
H        -1.66597719739686    3.30997552743548   12.68336695180712
C        -0.55622555938185    3.26166833405945   14.50396056930120
H        -0.58782304073250    2.18948527981489   14.61060209110578
C         0.09178325555511    4.02745496562726   15.45561212808782
C         0.16934458730398    5.40382245223200   15.35872064795722
H         0.67593381740759    5.96825044847416   16.12508636599636
C        -0.42447633031017    6.02407292053683   14.27463531747629
H        -0.38207102106514    7.09998871719055   14.18439089853289
F        -8.95707366532963    5.25883932728180    9.38940963289912
F         0.67382690729102    3.40672134635725   16.50476488393283
H        -7.01723233789896    3.70700902778617   11.62818235144399
N        -6.69431200693515    2.45415515004067   13.21798821115256
N        -7.24720515314254    2.81235050068196   12.04918165097774
Ni       -5.32805324200378    3.58939545632510   13.81592787724760
O        -3.94350527508459    4.92083085135721   13.87382256269180
O        -4.45707250521170    3.77185683407553   12.10859432946719
C        -2.18068440271252    2.02126074227931   18.15221646733928
H        -1.42393939563830    2.80441634552690   18.12241593649326
H        -1.72215597440474    1.12219883753650   18.55376843095151
H        -2.98149225366848    2.34351484032435   18.81511731192802
C        -2.70822944386848    1.76141389235061   16.79055958504552
C        -2.44987213203539    0.74311722026020   15.89421151430719
H        -1.79742447406220   -0.09405831327311   16.03712202809418
C        -3.21906750320808    1.03619831919614   14.75650952863547
C        -3.32128321859885    0.29202107862477   13.47353590656811
H        -3.98177253768277    0.84188836111492   12.80567649977097
H        -3.71996861299033   -0.70843000236288   13.63529914737951
H        -2.34181261932988    0.19183374714466   13.00814914172389
C        -6.92163824644055    4.94558603215636   15.19566979259546
C        -7.66893145259314    5.68404869856979   16.26685764165645
C        -9.03808115097950    5.89850834236136   16.10047767718742
C        -9.73746518924960    6.62726207288951   17.05544627906929
H       -10.79709340515124    6.79128473231285   16.92443785925797
C        -9.08606039939511    7.11740074159576   18.17323825565376
H        -9.63614771161117    7.67758618371988   18.91501348083553
C        -7.73196685054581    6.89379090994704   18.34249237662997
H        -7.22001918524254    7.28967942430771   19.20747081698195
C        -7.00660719899465    6.18689035922229   17.38781909306523
C        -5.55485373131358    5.99998845469582   17.55112837956817
C        -4.67757349264143    6.33428376654591   16.52198136536495
H        -5.06174553966949    6.73845484535013   15.59905770930453
C        -3.31495974338737    6.15650781333898   16.66787738235163
H        -2.63320552083345    6.39071665435155   15.86697099383393
C        -2.83782160140252    5.65173218110741   17.86346397549835
C        -3.68050751118666    5.32335137985341   18.90995381191921
H        -3.26986640049958    4.94037415981333   19.83131994165984
C        -5.04224289553668    5.50081290945167   18.74536081502954
H        -5.71742933182208    5.23543613695287   19.54530451391116
C        -9.73672351522941    5.32943160454831   14.93415179024206
C        -9.68241580151174    3.96009200135292   14.68888800838136
H        -9.11967484232839    3.32054923081366   15.35242318716217
C       -10.34691941019225    3.41362595300533   13.60813405613761
H       -10.32554990175705    2.35322492355382   13.41362718538475
C       -11.04891424492210    4.25467395658295   12.76428289372741
C       -11.11537202934057    5.61824698561493   12.97726023414964
H       -11.66710021404887    6.24284128271704   12.29243953245840
C       -10.46263237586339    6.14824696301536   14.07568597293971
H       -10.49665910487128    7.21198061135113   14.25855612554303
F        -1.50517011891457    5.47606774608467   18.02161617137983
F       -11.69124158913802    3.72111975414876   11.69873581913025
H        -4.00921046913955    3.42929528415296   16.52972515859831
N        -3.90255171445423    2.15376780426124   14.95386138702068
N        -3.58394917343158    2.58161900293407   16.18073821333090
O        -7.05116552283641    5.29222594812533   14.01276502848934
O        -6.18678053370447    3.97347404480421   15.54790368477369

