103
CSD_code = OPOQOA | q = 0 | S = 0 | Stoichiometry = C42H56IN2PPd | MND = 4
C         4.96528334223390    3.10723599852196   15.58322163932555
C         5.33651131542849    1.42737741244925   16.90109529800228
H         5.33362490599775    0.40818395520442   17.23461385971201
C         5.81455999132727    2.54396511751711   17.52181856144025
H         6.29215024482850    2.67609867659069   18.47117471247380
C         6.13136010372789    4.89254079246816   16.96655922280765
C         7.49890750455437    5.10592359724331   16.74715564071771
C         8.01576000452010    6.36093733973209   17.04526351122906
H         9.06322194283065    6.55587880207756   16.88096223198494
C         7.21392289652772    7.35795338209805   17.56415075121226
H         7.63650892186638    8.32536026809687   17.78967932626212
C         5.87780016720923    7.11423571470887   17.81907936376880
H         5.27225604687607    7.89155927694761   18.25479586791486
C         5.31326173983353    5.88052197109430   17.52713606427019
C         8.42509451084149    4.00665488873084   16.27397399032392
H         7.83546468362081    3.20752375729491   15.81150419858213
C         9.16906855224509    3.41907618333628   17.47964899306684
H         9.75355069247705    4.19226980896723   17.97399791632633
H         9.84271681928168    2.63242325522234   17.14863562458856
H         8.48210617882855    2.99428945451043   18.20626861862318
C         9.45381318153222    4.48980230195786   15.24742300189112
H         8.99299529643382    5.09444150118883   14.47141431166863
H         9.92510010069824    3.63040797997033   14.77642371085787
H        10.23498461304437    5.07741602806980   15.72324847631180
C         3.87085662306009    5.58009806137349   17.85996927652511
H         3.50716570228954    4.82670823772754   17.15185632026467
C         3.79038582713606    4.98394065792207   19.26994277957087
H         4.34249932581446    4.04903699962009   19.33187246089290
H         2.75366002810218    4.78562602852411   19.53284800460808
H         4.20586816423718    5.67873014640422   19.99691362837735
C         2.96340108584938    6.80626131793984   17.76052774793046
H         3.13458255031239    7.48719387560217   18.59040824493425
H         1.92064449170525    6.49718469229416   17.79949765886224
H         3.13181118350574    7.34314390356771   16.82907898183554
C         2.31115543041952    3.63604895517000   14.34175331183832
C         1.72672569628862    5.01277361677396   14.63930225843092
H         1.91064865188253    5.68918486342767   13.80160210358938
H         2.18179764256335    5.43990502690980   15.53299470066141
C         0.21250464759930    4.89075580547339   14.84174792091404
H        -0.19355010049966    5.88406091346073   15.06760759982509
C        -0.42942671268284    4.35511852442905   13.56325383748799
H        -0.23390131932710    5.03794121505570   12.73245808786541
H        -1.51165366511826    4.28749569040314   13.69136187014597
C         0.14476716217519    2.97332335468465   13.25239343410091
H        -0.30280451559311    2.59025119364070   12.32914679883769
C        -0.15897752692490    2.01739428048540   14.40335777938251
H         0.24404442465914    1.02711696542379   14.17919544994963
H        -1.23803262475371    1.91939204852033   14.53787474361316
C         0.48207034634353    2.55996975799497   15.67803941455478
H         0.27851638723841    1.87695385695093   16.50997558422187
C         1.99382938708132    2.66551516970556   15.48492858880242
H         2.39685780334389    1.66829963271432   15.24358375626358
H         2.45178173469815    3.00090473829082   16.42102627344275
C        -0.08462779307276    3.94170590323359   16.00057292640037
H        -1.16313934035053    3.87504036142617   16.15771612787143
H         0.36333067423194    4.32347218579664   16.92215271088892
C         1.65841048124777    3.07188141855967   13.06942660679244
H         1.88965442284385    3.70551793093512   12.20870269654260
H         2.06695589320682    2.06007588395782   12.87649466300888
C         4.91649943361376    5.11260019940024   13.27643394111798
C         6.39122296137010    4.74117153784553   13.08663226672937
H         6.85161171798421    4.58091081689727   14.06422244062795
H         6.46258724133008    3.80677193674649   12.51638964466865
C         7.12042600397683    5.85679646884156   12.34430532046937
H         8.17356538031148    5.58150397872929   12.21534284171955
C         7.01981353143661    7.14842369761944   13.15538123934220
H         7.48714986784356    7.01844183999000   14.13546630714067
H         7.54464281832847    7.95480253994773   12.63861020020097
C         5.54881130430072    7.51754476316725   13.33360607088621
H         5.47404273730332    8.44249479411458   13.91736515995513
C         4.90565808785838    7.72306778242235   11.96263162241809
H         5.41204300261155    8.53360094772130   11.43440016168803
H         3.85688598851466    8.00678209557131   12.08070563215902
C         5.00943386490757    6.42959944498190   11.15441520614699
H         4.54407537231386    6.57092834268135   10.17293022386070
C         4.27994458259659    5.31149052923653   11.89793526768479
H         4.34148180076439    4.37756687170367   11.32778447914307
H         3.22572969363707    5.57957844611300   12.00150477983063
C         4.81908268963965    6.40036681759547   14.08728708197898
H         3.77938374766287    6.69254310785549   14.23344466779197
H         5.27631318618581    6.26830562334462   15.06874323633945
C         6.47733433111874    6.05077684917874   10.97257381330972
H         7.00013065631072    6.83621823957656   10.42271546713989
H         6.55094768890719    5.12633765083656   10.39524148725119
C         4.76203624824394    1.51012653219883   11.48049582315665
C         3.87519471164821    1.69261519880897   10.43472035792948
H         2.80435340745645    1.70861132501518   10.60352381605630
C         4.35852400951525    1.83527025410249    9.14113740071832
H         3.65808057559921    1.97642880607630    8.32920108213333
C         5.71844980043391    1.79543330279259    8.87290700610041
C         6.59951279187583    1.58444541053696    9.92828904405792
H         7.66219164951991    1.52843008417527    9.73340422448849
C         6.12674432624876    1.43708101639059   11.22004805820666
H         6.83259881406329    1.24202310302736   12.03612011918690
C         6.23891418473024    1.94372566430193    7.47370424093215
H         7.07667564140349    2.63922313803018    7.44465774847109
H         5.46049035585469    2.30376478298696    6.80524302167095
H         6.59134543652531    0.98164679338176    7.10136903126878
N         4.82956921048228    1.78864834550884   15.70680237707163
N         5.58740345708662    3.60723352115185   16.68882130347377
P         4.18138493621133    3.54593424297726   13.98798455303656
Pd        4.41443379668611    1.37599653980968   13.42728513947846
I         4.07644302980717   -1.14236406231781   13.43048785083627

