79
CSD_code = OPUBAD | q = 0 | S = 0 | Stoichiometry = C40H28Cl2N8Ni | MND = 6
Ni        2.81461345044767    4.72127854210690    6.57347641249580
Cl        1.65163905997256    6.34946042900142    7.41767808330886
N         2.79345229373566    5.99479777428543    4.63211173789228
N         1.76010030161435    6.31811143192812    3.92321830548224
N         3.69880041070301    8.11285402560503    4.24513796773014
N         4.38123489052281    5.71768939958356    6.81930924387950
C         1.59937255275414    7.51843141758524    3.39462932077692
C         2.73639184192204    8.37543538603954    3.37318078844722
C         3.65481604888656    6.98455116683426    4.92716233795340
C         2.93529578626634    9.47361270347907    2.43683814123540
C         3.70679032353510   10.56876251338492    2.82635499018172
H         4.13178669761578   10.57769533115171    3.81826885479775
C         3.90191128801247   11.62565623475573    1.95927320981484
H         4.49227005005024   12.47471106918611    2.27077667918424
C         3.34257756088930   11.59750058616392    0.69163450779617
H         3.49496474394184   12.42457459179213    0.01432551806082
C         2.59237317044642   10.50280945070821    0.29115528154811
H         2.16767661845223   10.47297360678133   -0.70128763537903
C         2.38546917728540    9.44526825683722    1.15501745025709
H         1.81483666348028    8.58707454641486    0.83212840432127
C         0.28675475333735    7.84120791366602    2.84923475786953
C        -0.20336135520459    9.14551023877273    2.89855719767126
H         0.39377494333384    9.92647111977764    3.34567314035108
C        -1.45837555962131    9.43142858383881    2.39733270966236
H        -1.83424321161895   10.44275343813089    2.44178265596098
C        -2.23457526752170    8.42696458423330    1.84118560896007
H        -3.21230630290093    8.65682058511349    1.44457584367213
C        -1.75693317108487    7.12679863726204    1.80027430305497
H        -2.36295961798945    6.34201491164983    1.37175870988058
C        -0.50636509585831    6.83070956690432    2.30648619892227
H        -0.12055886613222    5.82301874340351    2.27494097569711
C         4.62615334926123    6.73892174514882    5.98650769862290
C         5.75891734978896    7.53919829549486    6.10323877178871
H         5.89554854804118    8.34353526712837    5.39864500839594
C         6.66599239467190    7.27493054182161    7.11040790583370
H         7.55257171887758    7.87971684361324    7.22750180936979
C         6.40841410315634    6.21208477889703    7.96232523599005
H         7.08720937855399    5.96031012776758    8.76164339298126
C         5.25779699629222    5.46142313348858    7.78234894679115
H         5.03739366071371    4.62706579303917    8.43767237625408
Cl        3.97764230455690    3.09314337504289    5.72914381382035
N         2.83598873524072    3.44731667038972    8.51457526015136
N         3.86977297742817    3.12376074301983    9.22274145179588
N         1.93157453449038    1.32860351118435    8.90017522815020
N         1.24786806939770    3.72504234724957    6.32767206261609
C         4.03126787011657    1.92297645857826    9.75004257579600
C         2.89458218504955    1.06553782008306    9.77133770335527
C         1.97486407848513    2.45747490120618    8.21907287840369
C         2.69665702172736   -0.03364936795908   10.70669598384962
C         1.92507551936213   -1.12854721534591   10.31663138489118
H         1.49925399095535   -1.13648329588876    9.32506339775796
C         1.73090854488867   -2.18643068824172   11.18271764942632
H         1.14046845003535   -3.03527011145623   10.87078072447510
C         2.29131351555054   -2.15955039315530   12.44991141044681
H         2.13969030320919   -2.98740749901568   13.12643546071061
C         3.04161119171686   -1.06513175059677   12.85095926583278
H         3.46714823307012   -1.03629876250891   13.84307232261300
C         3.24754350264565   -0.00658955828276   11.98809069136033
H         3.81825646898345    0.85137243815637   12.31145171506232
C         5.34438392216864    1.60011383979652   10.29418867168216
C         5.83500256410690    0.29607684447816   10.24290378468137
H         5.23784209384275   -0.48458114707679    9.79529217725956
C         7.09052714385629    0.01007455918299   10.74279950461819
H         7.46679346885548   -1.00103305508892   10.69680393610087
C         7.86673740502941    1.01418651990261   11.29956637103485
H         8.84488424408694    0.78426366035635   11.69511174448618
C         7.38857480886527    2.31409713976671   11.34244996449297
H         7.99460447177119    3.09861017333793   11.77145736864022
C         6.13749142113466    2.61027965299093   10.83756470113808
H         5.75129224784533    3.61777116721458   10.87064073192831
C         1.00309718930683    2.70358497923594    7.16023540180965
C        -0.12982849636702    1.90351540551580    7.04367743119847
H        -0.26633159758679    1.09898219201036    7.74807220940947
C        -1.03722723662931    2.16824175978510    6.03692031508100
H        -1.92395573857992    1.56364491385315    5.91997373165393
C        -0.77977132639466    3.23128288295938    5.18520610263009
H        -1.45879909769286    3.48338063843523    4.38618695198067
C         0.37102033430278    3.98171927512762    5.36499949661346
H         0.59135300253273    4.81618566296941    4.70979557553317

