108
CSD_code = OPUCUZ | q = 0 | S = 0 | Stoichiometry = C45H57NO4Ti | MND = 5
Ti       14.02571701066045   10.51143633977320    9.75957106927454
O        12.31008818604777    9.92967021374176   10.15197238083622
O        15.49480302185630   11.03331184320933    8.75502321543199
O        14.06039715257807   11.74296799543800   10.96166597962230
O        14.71878280225055    8.96718102918719   10.15256620474241
N        13.00324450879699   11.24443018610018    8.09600019433455
C        11.52822001232952   10.91087811600507   10.52931522064612
C        10.83179380893714   10.90082164557026   11.77216217861698
C        10.04665293475370   11.99025584978813   12.09433528676805
H         9.52452705168594   12.01771937708047   13.03726435961274
C         9.89325019078821   13.09959006159777   11.26115753521034
C        10.52518225367850   13.09097363678737   10.03925398719925
H        10.43209234488179   13.94514775781804    9.38311795146338
C        11.32290549676915   12.01146108581208    9.65263647906584
C        11.87281054551543   11.94274073565925    8.30374193383490
C        11.17651683232464   12.51091312163215    7.22890437273833
H        10.25172984274030   13.03469988666463    7.40647359010292
C        11.67023658794605   12.37088928292412    5.94715228468769
H        11.15527929324294   12.81898460226857    5.10961567594561
C        12.82563119743288   11.63931407473384    5.74860284805561
H        13.24412309495623   11.52551173445397    4.76207635137203
C        13.46933173453578   11.06371347324206    6.84962211363496
C        14.70225595633461   10.30379737055371    6.65751012865345
C        14.89184935763888    9.57107855178977    5.48328778528888
H        14.07178302083088    9.46587787103235    4.78688689896430
C        16.09065685057712    8.94633129887985    5.22672664930704
C        17.13544128235488    9.13062173731859    6.13398728427037
H        18.08073952632788    8.67532930200923    5.88562456857686
C        17.00820310721173    9.85111363604728    7.30489742968100
C        15.73052656732938   10.39805417444223    7.63491581719088
C        11.00338282162527    9.73024517456276   12.73378625503566
C        12.47764829737073    9.64321195914642   13.16224199009016
H        13.11697509230315    9.54399712195329   12.27580159112047
H        12.74669510456429   10.57226473241731   13.67398385888219
C        12.68990150691868    8.45334439432082   14.09819683971361
H        13.74786592601347    8.40358299126319   14.38319583425315
C        11.83117921290498    8.61887428132317   15.35052318180903
H        12.11154266489466    9.53295354947325   15.87956481353486
H        11.99052474904951    7.77720969629964   16.02918169481193
C        10.36280902838238    8.68650984638023   14.93779882600361
H         9.73890338674433    8.81956163617706   15.83030985257581
C        10.15066273382690    9.87728887045949   14.00293088485432
H        10.42782703307692   10.78975822168523   14.53530836149653
H         9.09321923884102    9.93749570517519   13.73492373152069
C        10.59973027221804    8.41841132711820   12.04301778292868
H        11.18987961447096    8.29437735257472   11.13423899729868
H         9.54515957229553    8.47060285748845   11.75787366460591
C        10.82608580060923    7.23193189366248   12.97888211769746
H        10.54604871240965    6.30703612448042   12.46011267887207
C        12.29684398875956    7.16075110502923   13.38643286286680
H        12.45664612060274    6.30626625698295   14.04965068845752
H        12.92462715630759    7.02314727686568   12.50442184188445
C         9.96483026104581    7.39439588541347   14.22937977342642
H         8.90808043344271    7.43101394107427   13.95400821814449
H        10.10728973397389    6.54195227999640   14.89824490566588
C         9.05248515527802   14.25928171282455   11.70854393750931
H         9.00151001445550   15.02233206019669   10.93597897642292
H         9.46990006241358   14.70769076263382   12.60958689185807
H         8.03985655095743   13.93034878241351   11.93936202492623
C        16.30118448141669    8.10960823695350    3.99959059887640
H        15.40400473129737    8.08886787720881    3.38619748570210
H        16.55569987274366    7.08650897646092    4.27476529759772
H        17.12126341120874    8.50651700287403    3.40230131451333
C        18.19945811708309   10.07799511777990    8.22661087772767
C        19.51239023796615    9.50023513777250    7.67790356650565
H        19.42375329343691    8.41859782930374    7.55248570058252
H        19.74068275986929    9.94549802415455    6.70660832434373
C        20.66574771622746    9.78624785048555    8.64180610556978
H        21.58794780570300    9.36157447041093    8.22617253976912
C        20.37844294585880    9.14572032719343    9.99809315972639
H        21.20482656895187    9.34368520590364   10.68524517625130
H        20.28794465558661    8.06236913737374    9.88773050507113
C        19.07904335864874    9.72504537796005   10.55531155424443
H        18.85991535783745    9.26593398668529   11.52654260605847
C        17.93641674911979    9.42088188729247    9.58848036029554
H        16.98170980017595    9.77402031841177    9.98837409821612
H        17.85781685915367    8.33940349427262    9.44906791155462
C        18.39476624008062   11.59183831653629    8.40732005413090
H        18.60901769523843   12.04359895234685    7.43447755650345
H        17.47091592769769   12.02995345475075    8.78512118310547
C        19.53934578506047   11.87378929607181    9.37661804555311
H        19.64759718751454   12.95810908352934    9.50045608441018
C        20.83557189595536   11.29314232210960    8.81657568811550
H        21.06785850734824   11.75701316891828    7.85483725085944
H        21.66582097814022   11.49883547409338    9.49670190788048
C        19.23128218186137   11.23490601502734   10.72936488259638
H        18.30954001382334   11.65498244392938   11.13343981674492
H        20.03944794215352   11.44812685476744   11.43418046287493
C        13.78586437570398    7.56265561023368    8.43174342526232
H        13.02177530597454    8.31974665854183    8.22800280472195
H        13.36607886228912    6.57423873967990    8.25265382700466
H        14.63623445627284    7.71600437392436    7.76585075111860
C        14.24236567637247    7.69254400448846    9.89412892988215
H        13.36136309797778    7.50521883826643   10.54105113159201
C        15.31722479202842    6.64523312912533   10.21773314537256
H        16.14638670614364    6.74692058057001    9.52113360049097
H        14.90687720576743    5.64147787858315   10.14092549647775
H        15.68799904528771    6.80519457751071   11.22793399962837
C        15.75094266459955   11.24086208559514   12.58502871289180
H        15.14682007690850   10.64360284085275   13.26479739238480
H        16.57009044417302   11.69028585130883   13.14290027316645
H        16.14166716837414   10.58290371822275   11.80431177668989
C        14.88765154568990   12.31807198845436   11.90891304630317
H        14.25230398910804   12.80979636503532   12.67387120317763
C        15.76058849151081   13.38618456157379   11.23404704827928
H        16.31587243688271   12.91533289976780   10.42364554216503
H        16.45003843214430   13.83832885427850   11.94338111977607
H        15.12366033056571   14.16153701247210   10.81101580481770

