51
CSD_code = OPUKAM | q = 0 | S = 0 | Stoichiometry = C20H23HgN5S2 | MND = 5
Hg        7.64548306447837    3.61480093201273    1.75334446105183
N         9.99482306005793    4.37691758754470    1.45693240243706
C        10.90902728208333    3.60468596120088    2.05389334421701
C        12.27321904116792    3.82267531026182    1.87230105794335
H        12.99133085014731    3.18853185733138    2.36710573865493
C        11.73150534359590    5.64604844194484    0.43434888033549
H        12.00866535967969    6.46195975170490   -0.21398608276165
C        10.39416785368369    5.36595863983447    0.67412367579844
H         9.61120656302289    5.96287571733145    0.21969388484912
C        12.68785621793164    4.85360493180516    1.04639113596328
H        13.74019723679818    5.03495446204185    0.88617700184233
C        10.42640445229740    2.51442295332180    2.92422805990026
C        11.44423383511430    1.74235141583549    3.67309676312509
C        11.67741366793990    2.03113521082485    5.01330773142565
H        11.12057422904438    2.82578441264522    5.48742788915935
C        13.08524667211353   -0.00445503166486    3.75354796264004
H        13.62983435260016   -0.79925737431698    3.26611617207096
C        13.32675982015996    0.28810650323748    5.08631089035625
H        14.06264120058089   -0.27841636835366    5.63743225143267
C        12.62472700313936    1.30469621889623    5.71350280354370
H        12.81295953690849    1.53198308007613    6.75201740538821
N         9.17624398479398    2.28868439587822    3.00866151630307
C         7.36019081540546    0.68863669909351    3.25843023146676
H         7.60114286213182    0.26370091696169    2.27932272758454
H         7.00122595892169   -0.12584948941811    3.90108308140223
C         8.66106262196998    1.24198119837165    3.84822849834090
H         8.48605523153194    1.67172360011383    4.84002550863056
H         9.38007951153713    0.42077475013947    3.95565943804428
N         6.32914858749469    1.71218669958414    3.05786727662930
S         7.65284312713612    2.44795913321773   -0.44795128253256
S         7.08277287119179    5.49531902798464    3.26275436637331
C         8.19005349055788    4.90201825615760    4.33451009194145
C         9.10351071654258    1.75453137529277   -0.07822717694578
N         8.94596760126117    4.49898405089660    5.10596539286393
N        10.11516781270534    1.25480582645480    0.15856829039889
C        12.14767733753327    0.72204366275897    3.04044873611704
H        11.94260018455059    0.50653305764241    2.00219502740197
C         5.26731530457993    1.17882623139221    2.19050920586503
H         4.75887320944767    0.33229124743136    2.67217058155559
H         5.75115791478194    0.80286595616570    1.28410372888855
C         5.80364773605004    2.24056288832983    4.32911140462707
H         5.14340588162194    3.07621495972789    4.08835755420739
H         6.64430322621003    2.65537160291050    4.88899459860296
C         4.24735653515966    2.23506858561230    1.78530337798495
H         3.59031317956324    2.50663700230930    2.60724693415942
H         3.63655764472282    1.85273345969733    0.97131265075339
H         4.76107832359965    3.13659895526380    1.43100028019977
C         5.04912633950970    1.25622824685847    5.22360923978615
H         5.67382911587474    0.41781313750396    5.52086387635466
H         4.15518753837372    0.87398349348545    4.73773891543126
H         4.74282869272665    1.77950645862199    6.12562249818600

