73
CSD_code = OPUMOC | q = 0 | S = 0 | Stoichiometry = C35H30ClN2P2S2Sc | MND = 6
Sc        6.28919826498071    5.57279511738823    6.21591940143639
Cl        6.02607021063314    4.45586513829907    4.18050790508164
S         8.20934375173223    7.08933733617531    7.37052582276767
S         3.72786877121083    6.09579732724831    6.84722324606198
P         7.51131322267692    5.90075409207758    8.83309804932060
P         4.69224822854374    6.05248760838170    8.60092059752416
N         6.07295929065310    7.52883687288249    4.76566266463636
N         7.93263049478904    3.80858756855344    6.40115635313807
C         6.07287202545174    4.99201102683524    8.45625994103963
C         7.56444976473219    6.82983193437657   10.39613806033345
C         7.10246106562638    6.17270908739071   11.53067044568905
H         6.72837430763203    5.16073784105683   11.43927648633139
C         7.11680457584161    6.82168941330890   12.74894852933718
H         6.75568685814369    6.31785183848250   13.63405816183975
C         7.59349734546034    8.12149161372728   12.83318105707876
H         7.60199960066195    8.62902189014155   13.78688703914733
C         8.05777513903842    8.77036378165722   11.70162081563869
H         8.42868663686283    9.78255350884939   11.77096722509961
C         8.04652498548418    8.12666438689665   10.47716120480561
H         8.39969724238633    8.62111497247914    9.58290846521368
C         8.80063052825623    4.65655702081756    9.17943614477288
C        10.13096101981812    5.05431089969672    9.21262086545536
H        10.37441847522674    6.09116520814484    9.01875660312227
C        11.11992769667938    4.12462739672585    9.47258297469412
H        12.15582440207748    4.43031194449157    9.49538614632115
C        10.78120768343393    2.80052056914211    9.70314093709626
H        11.55520636442188    2.07358888422602    9.90197777053602
C         9.45287873663470    2.40709498643994    9.68457621921741
H         9.19188728198505    1.37527478452176    9.87220318936626
C         8.45968926315754    3.33436527882228    9.42816936098661
H         7.41569355083783    3.04644109467038    9.40741698137264
C         4.89288818949242    7.78061155674692    9.15399620177893
C         5.29252461682282    8.72800221344475    8.21813338433426
H         5.39689063407920    8.44022801007774    7.17215722913794
C         5.53525274753146   10.02847971480347    8.61728851973289
H         5.85251241726563   10.76237112748849    7.89075608751839
C         5.37023401568157   10.38664155074706    9.94563413538573
H         5.55933368836616   11.40344764216511   10.25703963432318
C         4.95797452552148    9.44526847892305   10.87491787220042
H         4.82265474301956    9.72645491248486   11.90916392516378
C         4.72318440183183    8.14020884159225   10.48544123682968
H         4.41212076967933    7.39749466802722   11.20778171784634
C         3.50841494841679    5.36165634625075    9.79197266462620
C         3.79021642535141    4.16775127921573   10.43757517740477
H         4.74382398716109    3.68780055847950   10.25559615761115
C         2.85613677418832    3.61494927333052   11.29565789173089
H         3.07158959733261    2.68572978284055   11.80366183737979
C         1.64381577678161    4.25250500172815   11.49953393866375
H         0.91425416194826    3.82015996648924   12.16889161444255
C         1.35720356762271    5.43973397752229   10.84126736703797
H         0.40582348724425    5.92765869980598   10.99609553682623
C         2.28568822153636    5.99537510886587    9.98329360931142
H         2.07776822829266    6.91318352195461    9.44839050046985
C         4.95083126130752    7.59062937934763    4.03793769124336
H         4.11462508031499    6.98481188119546    4.38015489280648
C         4.82535825613342    8.38071447842980    2.90648481535427
H         3.89663475824559    8.38726019570251    2.35820726154032
C         5.90425895707891    9.14617886512040    2.49647478589029
H         5.84170298877617    9.76745731674386    1.61525356522738
C         7.06585757714715    9.09632599348160    3.24979884263393
H         7.93278470946951    9.67795727482218    2.97765500050396
C         7.10550714999646    8.27960826656663    4.36773880796034
H         7.99929075004069    8.23589929665447    4.98326532006449
C         9.22945818054472    3.88943587985211    6.10986163693637
H         9.62508092933051    4.88878322035727    5.96109712577103
C        10.05514323729749    2.78146699571643    6.01305897279366
H        11.10163247863040    2.90604713221042    5.78386530438396
C         9.50954505348704    1.52492535615719    6.21226730460867
H        10.12297146090833    0.63891378359012    6.14206762134234
C         8.15674880628834    1.43036643596848    6.49990929180325
H         7.68719874788296    0.47139312104382    6.65392639087572
C         7.41020243923946    2.59230611196889    6.58870083757059
H         6.34327446792187    2.56074635775352    6.82046962667212

