96
CSD_code = OPUPAR | q = 0 | S = 0 | Stoichiometry = C41H49FeN5 | MND = 5
Fe        6.11182513804963   12.45916247856011   -1.75654076410873
N         7.26922222035067   11.12767987903982   -0.96335374084706
C         8.60346140539686   11.12699789032751   -0.90003139400089
H         9.09272908090894   11.97535937587935   -1.35262724177445
C         9.34497916938859   10.13551210239052   -0.30592115811240
H        10.41992227569880   10.20898706069221   -0.27499686929712
C         8.68255730475397    9.03447753348808    0.26326560483042
H         9.24535714010235    8.25008334064638    0.74694913877664
C         7.31988102915208    8.97726973286712    0.17462933894516
H         6.75760960038703    8.14525368443665    0.57079610900556
C         6.61891274022493   10.03003247376230   -0.45091487468633
C         5.23915010937001   10.08177028519094   -0.65832870285808
H         4.56690345363970    9.29540087748044   -0.33296010000018
N         4.80090332571612   11.15201538744118   -1.31497803807400
C         3.43048128917811   11.18008819040168   -1.62022184938632
C         2.54906848744557   11.94547333373841   -0.84239802129321
C         1.20274596857251   11.95494893291060   -1.17001599939559
H         0.51044254101001   12.52732656107789   -0.57255291985947
C         0.72749765652261   11.23578856930047   -2.25101881778888
H        -0.32568848065059   11.25162483270701   -2.49092583462950
C         1.60259575661000   10.49633190887970   -3.02292466585364
H         1.22421768104982    9.93770731515481   -3.86634512977667
C         2.95634683252193   10.45572051265912   -2.72491930821584
C         3.07557219606504   12.70748741033624    0.34973557119729
H         4.13906651261960   12.90620097442828    0.16544933023431
C         2.37891693239266   14.05126174730055    0.55540445456552
H         2.34194804682078   14.60700092691917   -0.37852699227619
H         2.93029585717783   14.64168297369843    1.28433169602129
H         1.36482176470397   13.92205079999552    0.92697504467610
C         2.95606267966495   11.84127756936566    1.60698352283191
H         1.91743615968636   11.56392680570518    1.77944272469954
H         3.31767707168968   12.38500951564529    2.47710731864769
H         3.54334728234483   10.93214219829073    1.49933734324264
C         3.90423166045113    9.64653717710575   -3.58182925324382
H         4.92326860855865    9.82939849452844   -3.22817629722874
C         3.84638528228582   10.07177025954716   -5.05056838089620
H         2.85761707716682    9.90805266677570   -5.47193027901979
H         4.56517987227455    9.49654519930315   -5.63128694732312
H         4.09623391931963   11.12589267422989   -5.15365522725010
C         3.60562991350561    8.15175622852945   -3.44312079654256
H         2.60154684148813    7.92420965173610   -3.79381769599538
H         3.68173111093251    7.84426104567461   -2.40255765961392
H         4.31508772514631    7.56890744016560   -4.02722215474934
N         4.85424387830610   13.82109000749792   -2.29848778211036
C         3.84055088389800   13.70947373557926   -3.16152603509645
H         3.71717985824848   12.73712564381933   -3.61251581260805
C         2.98622487622081   14.73552751795591   -3.48186916494696
H         2.17703432733513   14.56938244976410   -4.17432501926003
C         3.17940924738527   15.99589888320034   -2.89072672688562
H         2.51138150578066   16.81302304593221   -3.11860311468488
C         4.23624398003809   16.16074960965613   -2.03988022223050
H         4.45066386887074   17.11110540338148   -1.57496746130697
C         5.07731989803629   15.06430865759475   -1.75526499348614
C         6.21928990020303   15.09811424684638   -0.95235425404827
H         6.56200224890322   15.99960743041812   -0.45631762998503
N         6.88578921390240   13.95108552563724   -0.86274895755086
C         8.09342169794439   13.98032861230529   -0.14783332430648
C         8.14811033860651   13.49261009315423    1.16640707505583
C         9.35670950851820   13.52608859294324    1.84306235653018
H         9.41181621257624   13.16686762959049    2.85880443388679
C        10.49839451419309   14.01794300782725    1.23768809422968
H        11.43245361161266   14.03880815062186    1.78002890778483
C        10.44151591317962   14.48383208195439   -0.06159797566791
H        11.33778399340347   14.86585338181988   -0.52791920706027
C         9.24978274336612   14.47478108458243   -0.77084352568614
C         9.20488864687292   14.98232282274870   -2.19499494512855
H         8.19130452876551   14.83473757660124   -2.57932986108917
C        10.15654480512073   14.19896603457309   -3.10194268881795
H        11.18655914408194   14.28738856359996   -2.76478850632619
H        10.09528362601738   14.57852488620159   -4.12025353943822
H         9.88623872972002   13.14490479105406   -3.11799873150635
C         9.52455647458687   16.47845689329122   -2.24224960439290
H         8.83537224746862   17.03402385651544   -1.60994948323148
H         9.43492208796928   16.85162787992416   -3.26058988824647
H        10.53698236771073   16.66990162788689   -1.89416718000303
C         6.88887372547914   12.98141884784699    1.82369368356381
H         6.21699881527537   12.64631927675215    1.02320690107596
C         7.13640759384176   11.79423669331899    2.75228331724811
H         7.74288243041378   11.04173852201792    2.25404995036046
H         6.18634956369110   11.34129915190979    3.02835210346438
H         7.63935011618885   12.10105724901646    3.66661403562336
C         6.20605080552590   14.12394540534956    2.58118746603935
H         6.87501442944714   14.53082893592368    3.33768639359355
H         5.30445183768666   13.76604614045245    3.07357353154601
H         5.93149304859773   14.92323246449311    1.89656154993275
N         6.85359537901726   12.19477720339916   -3.64024824345581
C         7.29901104273951   11.00125540070387   -4.06609847492133
H         7.28288866518159   10.20290413564135   -3.33775445428904
C         7.76385182831608   10.76382137934341   -5.34277920003976
H         8.10793090816260    9.77735260611427   -5.61325851460425
C         7.77942167828909   11.80199586169584   -6.26519495350065
H         8.13151077465875   11.65031132000759   -7.27365588854816
C         7.32643415129669   13.04326728536857   -5.83824892830423
H         7.31737020528377   13.88982082476802   -6.50751554710111
C         6.88549406324168   13.19181070380207   -4.53962575205012
H         6.53316581912766   14.15301684928441   -4.19341429159290

