63
CSD_code = OPUPOF | q = 0 | S = 0 | Stoichiometry = C28H31N3Ni | MND = 7
C         5.81889643607772   -3.52381608146039   13.93028173651729
C         6.67283317281321   -2.43955418836613   15.70222308787018
H         7.15646652782285   -1.63874542679427   16.22200257271350
C         6.15357663374428   -3.60307624644018   16.14947793720040
H         6.11717649525851   -4.02637946404609   17.13192647864938
C         6.93343540784137   -1.32806534254518   13.54721354442808
C         6.02264021231559   -0.45332960833903   12.95465696781403
C         6.51145012823958    0.60561966844692   12.20597335206002
H         5.81243642714916    1.28505411167801   11.74021695419503
C         7.87360876455615    0.81178044542475   12.04258961328433
C         8.75687064787563   -0.07035162297891   12.64778319702428
H         9.82025561633348    0.07609350113677   12.52523552801699
C         8.30947560818614   -1.14331716389893   13.40404983378959
C         4.55330945699279   -0.67026195215203   13.12194557980884
H         4.28337658719125   -1.63142401429774   12.66998974961570
H         3.98557662294137    0.11856151947296   12.63695981432635
H         4.28170465204763   -0.70597129951598   14.17687465355573
C         8.38328527932570    1.94663464412488   11.20909192556457
H         8.56336804715966    1.60364792766128   10.18998427205750
H         9.32183094635676    2.32796515227766   11.60459200211995
H         7.65928943355203    2.75665583025820   11.16948407929666
C         9.29758185406139   -2.07717943415197   14.03923955955154
H         9.51573333871539   -1.76699728828564   15.06153128686678
H        10.23113392990725   -2.07002714896989   13.48234511574885
H         8.91875483653985   -3.09695443807532   14.06910369910277
C         5.02259009122020   -5.52835435336874   15.16595446247160
C         5.67185630669522   -6.65665597398369   14.66000443017037
C         5.06235029470769   -7.89010335245877   14.82198036111826
H         5.54790728607910   -8.77109799560945   14.42837541449590
C         3.83840782056638   -8.01964413333627   15.46643769663119
C         3.21446201664544   -6.87964997407179   15.95015594719481
H         2.25426139542726   -6.96391841022655   16.43897615982919
C         3.78991243716593   -5.62472577084085   15.80961712733879
C         6.96717653075249   -6.52402747925106   13.92567715398083
H         7.38820374406966   -7.49924849750328   13.70065468208191
H         7.69158243551385   -5.94803887366615   14.50065604441739
H         6.79385242889871   -5.99810169620687   12.97749739159613
C         3.20560505973837   -9.36958829007760   15.61088762963364
H         2.30194196368298   -9.31636895462547   16.21259269257400
H         3.89903334971590  -10.06622565031384   16.07925013427861
H         2.94616423073605   -9.76877287152427   14.63081937981161
C         3.08593199280431   -4.39951308231770   16.31182581375594
H         2.03371795598191   -4.61186241162336   16.48309066398737
H         3.16655144901748   -3.58809680423686   15.59016185810544
H         3.51955614063224   -4.05775434384354   17.25206779848963
C         4.27925418068797   -4.51602743423882   10.40779154567449
H         4.63784832832975   -4.42716555534728    9.39198190808979
C         4.29181252664037   -5.73300462788079   11.16460121910840
H         4.72310423936970   -6.66459873863980   10.83648928960830
C         3.57727552480750   -5.50578214028190   12.32929140287093
H         3.30778724843591   -6.23985867616833   13.07122356260946
C         3.07713896926462   -4.15614850727729   12.29012755166892
H         2.36483882311949   -3.74951066106377   12.99498586280350
C         3.43597573055940   -3.58588310775586   11.06231746261913
H         3.08811857270427   -2.64827073269316   10.65676797450040
C         6.93806602398646   -3.61521471617563   11.28183255602336
H         6.72023233804930   -2.81031013902252   10.56253280079967
H         7.76570057594720   -3.29617715033759   11.92479237130493
C         7.35196325806401   -4.78316199220280   10.58733361500324
N         6.46284549432652   -2.40476265274465   14.34884540008709
N         5.64216655965917   -4.25316969979789   15.05842613819455
N         7.74254285017194   -5.71311455988747   10.03128150873050
Ni        5.21959676282071   -4.03985206957394   12.17632244716288

