64
CSD_code = OPUQAS | q = 1 | S = 0 | Stoichiometry = C28H32N3Ni(1+) | MND = 7
C         9.45325631606620    2.07174437848487    5.17630485439672
C         8.03174436079159    0.35657098738036    5.02828971487895
H         7.29330775727733   -0.27145780933070    4.57474387763130
C         8.60940063683445    0.30840383949886    6.25161234849848
H         8.48435231765732   -0.38134835347084    7.06004391194097
C         8.23151470148328    1.78527379969516    3.04005952890062
C         7.37941581854428    2.86246918962395    2.79409784031726
C         7.06056857109788    3.16069818256100    1.47958798244792
H         6.40119796838104    3.98998967366695    1.27231059540818
C         7.55828357116494    2.40939796124323    0.42168895071697
C         8.40113790443379    1.34229915420395    0.70033906609775
H         8.78542358755088    0.74208273053867   -0.11207058158979
C         8.75110284464669    1.01290349002017    2.00193469520225
C         6.82223684364262    3.65653354165582    3.93360110337492
H         6.24820101471252    4.50260447572411    3.56866664303438
H         7.63593254726904    4.02334499948533    4.56358977129783
H         6.17198074960584    3.03592572153340    4.54982914478481
C         7.17842713162142    2.74923357546126   -0.98440087937826
H         7.72814640975244    2.14440832889907   -1.70048327851834
H         7.36753337140410    3.80144954930741   -1.18941590448517
H         6.11427679813816    2.57329172851387   -1.13422537806850
C         9.67083011274061   -0.13582552993580    2.28624470685471
H         9.12251039894073   -0.96783395190071    2.72610013679061
H        10.45189782384502    0.15904582988456    2.98655479008841
H        10.13356260109779   -0.49033248266252    1.36969183315931
C        10.30883465279460    1.60005443783234    7.45668339311309
C         9.72801155041064    2.00797719524907    8.65723503048829
C        10.55404435842705    2.19049162768944    9.75650834209523
H        10.11807176955962    2.50990508167824   10.69125581036790
C        11.92258539404751    1.96719599385266    9.68576416751145
C        12.47037862424455    1.56514662385365    8.47388827402591
H        13.53413327517807    1.39255150331805    8.40459955280808
C        11.68342205724750    1.37832816453017    7.34866990185558
C         8.25201673402966    2.24287264491126    8.77402791821898
H         7.82175079951939    2.58557164345244    7.83488862081683
H         8.04899049131347    2.98271263011563    9.54408411072274
H         7.74425806435711    1.32215660634717    9.06145165606331
C        12.78689963812631    2.18111810218779   10.88648529242695
H        13.74401298722988    1.67937901511260   10.77433794997080
H        12.29654776071246    1.81290225979048   11.78439386235810
H        12.97452700795077    3.24608628828215   11.02461203277783
C        12.29051744025726    0.97119459467823    6.04009485964980
H        12.16249558748460    1.77669097838321    5.30055470756977
H        11.81258918391361    0.07332285900399    5.64972206294634
H        13.35281226386876    0.77871663241657    6.15568928723880
C        10.98953138263187    5.70403595217557    4.49284860695708
H        11.15096448364969    6.30919995661261    3.61357562465015
C         9.80562286208785    5.60768025341080    5.21499278631109
H         8.87696389282729    6.10989961558891    5.00312692402185
C        10.07444015143242    4.75033483089160    6.32379804945797
H         9.39709926932502    4.57245279201061    7.14670118943939
C        11.50314122229922    4.52981432732531    6.39445416720273
H        12.02210126231647    4.08639886178985    7.22630830893012
C        12.05369040942475    5.06413961937445    5.24970244296087
H        13.10059447022435    5.12346301975772    5.00009516254397
C        11.29795236527145    2.97486032798404    1.95589559582360
C        11.69891460309886    2.75869351871168    0.61041157359290
H        10.81180522006904    2.63461834097560   -0.01137701252179
H        12.31410038030550    1.86087329606869    0.54848651007102
H        12.27496619712838    3.61252740261057    0.25336971643855
N         8.56116580510404    1.43815522938906    4.38247750926157
N         9.47895765165506    1.36055201043332    6.32368545742423
N        10.96511758057249    3.12814185453537    3.04653191682630
Ni       10.48222899117788    3.64921089759440    4.70227316379809

