61
CSD_code = OPUSOJ | q = 1 | S = 0 | Stoichiometry = C22H32CoN4O2(1+) | MND = 4
Co        4.14295427989812    5.48659223320175    9.78677650559720
N         4.58804204542757    7.54386984867853   10.22331745022838
H         5.39988410090090    7.53428450778401   10.84768745442785
N         5.20509692102429    5.92019578307245    7.94610060663942
H         4.49890342531531    6.14476608728506    7.23871665886050
N         5.10700042523012    4.92353756448700   10.95824109806624
N         2.54908182637742    5.62893129839855    9.56697933439553
O         5.60926618265768    5.10509748622638   11.99553578007088
C         4.12922553197137    9.74312120523489   11.26430210030003
C         5.03744769494535    8.14280453562091    8.95589273742261
H         5.56373193092244    9.08625549592883    9.13741609663682
H         4.15618054795106    8.35461060156954    8.34269538807510
C         5.24492130560995    4.01999415905930    6.37904367263231
C         5.16254930771281    9.86028454803447   12.20144288605045
C         4.57138081456798    2.88329037147489    6.83912928964995
O         1.54933288311151    6.18250077911856    9.78262881507811
C         3.60856805398429   10.89273944232981   10.65629552373478
C         5.14527518383521    4.38590888597038    5.03171300937544
C         3.73776070007640    2.45983536308524    4.60520038578728
C         3.83268177435160    2.12150627747832    5.94790279156790
H         3.31898742231124    1.24162606518720    6.30574860903589
C         5.67252464562848   11.11675400283499   12.49652178488147
H         6.46803192714635   11.20080853102427   13.22208247477370
C         6.05764635714390    4.86884437018046    7.32252624519347
H         6.50821204763723    4.26542841831357    8.11177213057758
H         6.86628953051860    5.35356277129275    6.76719665647672
C         4.39691678374023    3.59952382553199    4.16834331482185
H         4.32864952147379    3.88016239352426    3.12781577393954
C         4.14410304828487   12.12957336590168   10.97996839898405
H         3.73837253774704   13.01536389549265   10.51448889090518
C         5.18326873026601   12.26326857678570   11.89046600468785
C         3.58036734933363    8.37814247233804   10.91955856570038
H         2.70211457557458    8.46640263383145   10.28172533312289
H         3.28445287450951    7.84978383415924   11.83036357487658
C         5.73270542300977   13.60970703786767   12.23285861698656
H         6.76484183953805   13.53815661039101   12.56597845572592
H         5.14799711142164   14.04847638092263   13.04154851751940
H         5.67802309887973   14.28136833554309   11.37978893409825
C         5.94746155939485    7.16131673939370    8.22370297413627
H         6.31422630154634    7.62054378814765    7.29750017208665
H         6.81319188903968    6.91470177323203    8.84635466089599
C         2.96183996459406    1.60770822584969    3.65448877105610
H         2.10534840359486    1.15441187183474    4.14731437471256
H         3.59674725180607    0.80363456703595    3.28195230849301
H         2.61780243077866    2.18625717130127    2.80120881118515
C         2.46500011569862   10.83812801367761    9.68399822121783
H         2.21152818570630   11.84217588721337    9.35664162208353
H         1.57951921907008   10.40775023091907   10.14985115102821
H         2.71019288160706   10.25285656934379    8.79849052643386
C         5.83750322362703    5.60226865484627    4.48379672816292
H         5.52963415158279    6.51404113219375    4.99570964325254
H         5.60197186324767    5.71938340837520    3.42998361771912
H         6.91976634416370    5.50766949359887    4.57116803412706
C         5.75679043408716    8.67826524046013   12.91777172450779
H         5.03445567994112    7.88325005123576   13.08977112076511
H         6.13105586681662    8.99577787173982   13.88797536848549
H         6.61243786325707    8.27259328080808   12.37243821042015
C         4.62248613629587    2.47354076529385    8.28065991182521
H         5.64132546271244    2.24713467926447    8.59182941327352
H         4.01609268939363    1.58714716977038    8.44249609854097
H         4.22863232173498    3.27586341918400    8.92762666862193

