59
CSD_code = OPUZOQ | q = 0 | S = 0 | Stoichiometry = C19H31B2FeNO3Si2 | MND = 5
Fe        0.83451577830493    7.57843267606784   11.28923460657159
C         0.89619795311211    7.41378684589179    9.53745857093776
O         0.99933470067797    7.25369646958634    8.39531206689415
C        -0.89971959276143    7.74006288144055   11.61585380581150
O        -2.02333421695722    7.86777887231214   11.84880867070215
C         1.32600999304738    9.26719417640365   11.47706294735929
O         1.64168337081848   10.36925239354139   11.61586706399818
B         1.35968760577902    6.69417845187364   12.81028585202139
C         1.70294777918881    6.00342485088937   14.13936741280568
C         3.01945297681744    6.03187472303684   14.64373236476612
C         3.35348328331705    5.31869806551325   15.79339077533760
C         2.36296434505590    4.61507787225204   16.46280587521436
H         2.62213432662127    4.06360225583846   17.35634767344661
C         1.04641054205729    4.61322853518395   16.02700779365410
C         0.71564051516596    5.30119638769610   14.86092890498698
C         4.07934370539137    6.82129551269586   13.93464197025889
H         4.70998344587553    7.34820966998036   14.64878866964898
H         3.62897913892341    7.54666004671879   13.26094259158273
H         4.71705005061838    6.15870245048641   13.34699862200473
C         4.76035968048027    5.29798619357599   16.31417265639964
H         5.45930797097476    4.99760908203159   15.53448567969845
H         4.84827040634063    4.60208378206130   17.14506455299692
H         5.05636989410470    6.28650117346024   16.66620107149736
C         0.00420079232852    3.87090319565580   16.80848936874855
H         0.43518633068309    3.44221415817561   17.70996206168762
H        -0.42340067886867    3.06251480096332   16.21475516084423
H        -0.80850620588892    4.53683404383803   17.09564736831170
C        -0.71423664601054    5.31456958602774   14.40673493602525
H        -1.31720051624219    5.90293055252566   15.09973010983761
H        -1.13153589039056    4.30806618224798   14.38633948360137
H        -0.80588553152133    5.75862418055653   13.41844251913568
B         2.03704684473231    6.16041271347996   11.31277755395791
N         2.92124403331753    5.18990561715563   10.92011216537302
Si        2.50101248208275    3.48069955651787   11.21746154569437
C         0.62208812811985    3.38060891194905   11.49204875345580
H         0.36603112971950    3.60495498511076   12.52137459539322
H         0.24454725320033    2.38703261949447   11.27044109524153
H         0.08962258104119    4.08917376991878   10.86244329743029
C         3.43123357882090    2.90042213914449   12.77619221194184
H         4.50771082128733    2.90379048734260   12.64022941105314
H         3.13933500409462    1.88649477593773   13.03190908795817
H         3.20360534700298    3.53013963526488   13.63152655185099
C         2.94569936297658    2.41126975042006    9.70682103138245
H         2.39609075193831    2.72121585525110    8.82356491794533
H         2.68358024015097    1.37662965211550    9.90559154992934
H         4.00311752928949    2.43667914849824    9.46818470633677
Si        4.39646607944751    5.67819364045151   10.03405830810488
C         4.08846572393792    5.40536076902690    8.17479154029669
H         4.03529939068305    4.35664202208309    7.90315717779165
H         4.88664314325150    5.85249760748176    7.58965091422272
H         3.15793215816484    5.87350824086320    7.86668847937926
C         4.73934423656148    7.52383047217859   10.33833876351449
H         3.81925125759865    8.10218296111153   10.29192082787265
H         5.41297147884767    7.91268281298518    9.58109806288485
H         5.19639438816460    7.71259621853072   11.30428795432923
C         5.87251595723590    4.65428805802866   10.66964297101163
H         6.04309478727435    4.79552784132561   11.73246276663189
H         6.77606868831938    4.96315940588021   10.15410581088577
H         5.74589231570050    3.59171026391417   10.49485674133810

