25
CSD_code = OPXMOL | q = 0 | S = 0 | Stoichiometry = C5H11MoNO7 | MND = 7
Mo       -0.61924537218155    8.41048552723052    9.36235509728272
O         0.47385674909716    6.98708582322282    8.99109815648161
O        -0.39854359637461    7.25105602000254    7.95671451185928
O        -0.76305998104457   10.21570139985314    9.42746508256619
O        -1.35724283911042    9.70167975900464    8.29652086783792
O        -1.77050805599680    7.84502178768767   10.38802206280706
O         1.82735762616800    9.23393532240455    8.55692164981961
O         0.78877802966716    8.71701080238376   10.93061436746088
C         2.21575362876160   11.34753262294204    9.52731810571198
C         2.47486932454524    9.84156240410688    9.64654194174194
C         1.87202546280731    9.33463032856664   10.96170118439784
C         1.81081482199556    9.14968594219709   13.35353788004628
C         3.72827465477138   10.23917273610106   12.32127166883478
N         2.46763851758056    9.56312030844413   12.12627703046186
H         2.05204521981020    8.28900860590709    8.47991513387368
H         2.65976633892144   11.89921199001219   10.34920029974044
H         1.13589357485840   11.50491280488906    9.51346374348831
H         2.62728927434061   11.70283895059052    8.58653945785056
H         3.55292302313971    9.61769308084166    9.60034256869772
H         1.77820895853434    9.99022010571516   14.04638481441620
H         2.35936359089772    8.32604565298001   13.81255768252218
H         0.79746678682533    8.82277006228578   13.12572236801697
H         4.30489242304753    9.69406643138690   13.06968314337374
H         3.56095353947387   11.25331362795476   12.69137304012359
H         4.30882829946404   10.29073790328794   11.40625814058781

