61
CSD_code = OQAGEU | q = 0 | S = 0 | Stoichiometry = C32H16Br6N4O2Pd | MND = 4
Br       -0.95573051322806    6.03868204554276    5.81070506244093
Br        3.97987798698032    6.60867197605938    2.98592175368749
Br       -0.15986759982951    3.34304748345176    0.91678996172020
Pd        3.68152812923420    6.22678722487791    5.97694684847884
O         4.08459745569107    8.11133148937648    6.71885094461253
N         2.00221581072341    7.00107460310391    5.25292526121657
N         1.31961491089005    7.95144603649003    5.76215689323848
C         1.43673034067302    6.23702366343015    4.24648597382006
C         2.21581547064948    5.89222151667825    3.12990920320378
C         1.75659703021682    5.05407519160679    2.13673081371216
H         2.38537811514375    4.81227802490099    1.29458626918444
C         0.47919493665057    4.52582962063495    2.25251134200609
C        -0.32910964819055    4.83645073619054    3.33299676168768
H        -1.31759331718151    4.41311263294425    3.42158661158298
C         0.14775085721379    5.68801958487608    4.31320599926362
C         1.76847138581453    8.78655337167407    6.69057214032942
C         3.14531191772802    8.86530060521161    7.12659898303044
C         3.48437764955785    9.90808878124410    8.04870334101151
H         4.52169701952368    9.96021655560060    8.34724101660034
C         2.56222344834616   10.76800844284632    8.53847482535942
H         2.85408480970022   11.52390616133633    9.25388395435484
C         1.20081784375994   10.71408348037614    8.13037599198155
C         0.80328514949362    9.73672326639551    7.19288676272280
C        -0.53338662339307    9.70882812926961    6.77686714570706
H        -0.84052333760215    8.96839427615057    6.05751658659386
C        -1.44323130435848   10.61195618709752    7.27379599978814
H        -2.46894549555302   10.57823868293396    6.93869852200744
C        -1.05305615116455   11.56960405611823    8.21012947615396
H        -1.77752752015960   12.26961412654841    8.59810404399437
C         0.25304551510630   11.61923539650575    8.63084901119335
H         0.57060728786740   12.35834268764069    9.35207955552204
Br        8.31840041124447    6.41609019171627    6.14215391026093
Br        3.38357188067713    5.84475485082449    8.96925403099227
Br        7.52240739601756    9.11176937725361   11.03608607129504
O         3.27909202303496    4.34283705330951    5.23382752526625
N         5.36119402912679    5.45304944426286    6.70025180251157
N         6.04392736368396    4.50272259787676    6.19111226946062
C         5.92641308605339    6.21708588973612    7.70680740823964
C         5.14726678261820    6.56181429636669    8.82339090590872
C         5.60637117911087    7.39991036683423    9.81673609389714
H         4.97719428201385    7.64245978249870   10.65833508859702
C         6.88357680801949    7.92870237683149    9.70060688959617
C         7.69182737985890    7.61850241012040    8.61988564683620
H         8.68033134762074    8.04167908368917    8.53155381352973
C         7.21523718417366    6.76647958944556    7.63993907054265
C         5.59516691873381    3.66748325830830    5.26279836649957
C         4.21843830433759    3.58877974306573    4.82642301859114
C         3.87940622181155    2.54550754305053    3.90483444289467
H         2.84214674745986    2.49328936062781    3.60608706591675
C         4.80161482121267    1.68532468535255    3.41558315035166
H         4.50994079486163    0.92934037009368    2.70019050233836
C         6.16297396894678    1.73943469355384    3.82380416430659
C         6.56039919687258    2.71713119220973    4.76096340751204
C         7.89703310610991    2.74526921445032    5.17708616147763
H         8.20414881938098    3.48606715994539    5.89607700167680
C         8.80693532896127    1.84196431552076    4.68060461668247
H         9.83263654883736    1.87586874349458    5.01572822449779
C         8.41687356103306    0.88391678218910    3.74462380990263
H         9.14138910161961    0.18375221209203    3.35700671981988
C         7.11081591847670    0.83412882657653    3.32376486987500
H         6.79331792779292    0.09473855158801    2.60279689451743

