39
CSD_code = OQAJOG | q = 0 | S = 0 | Stoichiometry = C19H13CdI2N3S | MND = 5
I         2.50622796747904    7.05873906374787    3.98443312821956
I         3.16325348703695    5.97252211934284   -0.84199373631845
Cd        3.18546412484390    5.61031300079453    1.83061547029842
S         7.68309627553895   -0.44643536772425    0.92960078414397
N         1.58044804872368    3.76646363926845    2.23755556103944
N         4.23922059405822    3.47403942263810    1.97412707661251
N         5.66410362513677    5.73795335817192    1.96413825430050
C         6.38894006875189   -2.60692906891153    1.37484440529648
H         6.14340480972542   -3.64894260726032    1.47194900724445
C         7.61095705158976   -2.15394932903522    0.98491057093405
H         8.47973303386141   -2.72514944259984    0.72406352959104
C         6.22601059092030    4.66279961822011    1.40362522344742
C         5.48432553689884   -1.56381445881411    1.63682966744798
H         4.47389167709926   -1.73807548794526    1.95854129120987
C         5.51666383900430    3.38386303494487    1.60904549023204
C         6.02374355187002   -0.31615338717900    1.44524669703664
C         5.40523422199189    0.97679123200818    1.62022028608098
C         7.39304028159642    4.75786916353400    0.64821933021290
H         7.81039760333522    3.89087555127531    0.16219562578130
C         6.13951963469976    2.15248988604145    1.44630629310923
H         7.18645821157697    2.09125497882325    1.19626584936580
C         3.51726032654939    2.37060179463385    2.15263185138884
C         4.05653177703935    1.10328704164030    1.96707058803911
H         3.43845649600414    0.22785244111485    2.06945376513770
C         7.41729568478783    7.10123326988499    1.10463926805675
H         7.85424153924359    8.08241646316584    1.01255538346688
C         6.24602250990272    6.91774051231641    1.82527874940905
H         5.75164134745692    7.75152128713356    2.31282851947231
C         2.10574797948771    2.57629236963807    2.53909123630195
C         7.99012199697162    5.99785667761556    0.49394854674656
H         8.88718327235617    6.09908993969802   -0.09824272954877
C        -0.49687892380265    3.09361876425967    3.18674673053442
H        -1.51969944849483    3.33987390630591    3.42118206225750
C         1.36299660540509    1.59808985906311    3.19774024739582
H         1.81209095049407    0.65765100553583    3.47461285431767
C         0.31982266316265    4.01636644637493    2.54997923199643
H        -0.05385683730619    4.99822291434497    2.27994216704846
C         0.04398860556701    1.86401248854018    3.52464434006100
H        -0.54890078057021    1.12334789939235    4.04035738262998

