35
CSD_code = OQALIC | q = 0 | S = 0 | Stoichiometry = C11H16Br2N4OPd | MND = 4
Pd        3.45367616341339    4.71317222575821    4.28874103143930
Br        1.32973587639219    5.35854746302982    3.34826286936853
Br        4.09067908471931    3.23232220823974    2.48906240280515
O         4.00664804406310    3.64915012538258    8.69219395745477
N         6.35786146063351    4.75566035517793    5.04880468186484
N         5.23574236866556    3.30932117236605    6.18055630868511
N         3.25280575912651    7.12875554206306    6.07234712906164
N         2.60752781449532    5.32218445417073    7.04643106484781
C         5.13658782406784    4.22737244668360    5.20257319069524
C         7.23312176017739    4.17096071906202    5.92829804919398
C         6.52834528522150    3.26250073787054    6.64151521320875
C         3.05066265819823    5.81914656569169    5.87888280844584
C         2.93713751243300    7.46114051578181    7.36651084451991
C         2.53263714917073    6.32460908613592    7.97919415354049
C         4.16158530746095    2.43158596579968    6.56548726083487
C         3.25707098206128    2.98908968781214    7.69798839767943
C         2.15849575741142    3.96686536262135    7.22047543544046
C         6.68840384602076    5.72530465178072    4.03884073707324
C         3.65343427470348    8.03967397148228    5.03358875841270
H         4.61183504317380    3.02689429065103    9.10887272262627
H         8.26879528357755    4.43785209333326    5.97123434139884
H         6.84552985089472    2.58940492596183    7.41141678977650
H         3.01692408899283    8.46240076391163    7.73641615450039
H         2.20668766608366    6.14898445347735    8.98282066719612
H         4.60196918439442    1.48658135135365    6.89752449340241
H         3.54457860524415    2.23402291661203    5.67230654604004
H         2.72903378871230    2.12014406406043    8.12387409723710
H         1.74719456145642    3.61408820179215    6.25927145865493
H         1.36007159667125    3.97330603369427    7.96624534800773
H         7.51704338507703    5.36494959334923    3.42823229477644
H         6.96274974270956    6.68121130189028    4.49042115657098
H         5.80720520362832    5.85851765206576    3.39248533350277
H         2.92273482336057    8.84327752259337    4.93441031507894
H         3.69157656612003    7.48146641009101    4.08601224732983
H         4.63381168146623    8.47013516825032    5.24860173932603

