114
CSD_code = OQANEB | q = 0 | S = 0 | Stoichiometry = C46H64OP2Pd | MND = 4
Pd        7.86755186494285    6.24666580199748   16.03348463153517
P         8.78052770546776    5.04616823112690   14.20309933610441
P         9.29059046645293    5.58769217693195   17.86697354560578
O         8.24681982920994    3.48364326497038   16.42427977962610
C         6.57351899327234    7.30282488118719   14.82664920439594
H         6.86504039241683    7.34820426918088   13.76807493112028
H         5.53648547080547    6.93825405149298   14.86622866733481
C         6.62988104693054    8.71123510562247   15.43678286362131
C         6.28806930884722    8.46599208274292   16.88847437219650
C         6.65130394328339    7.18629023623327   17.32602820951322
C         6.20104103487002    6.76047070099049   18.56766692851500
H         6.38574949332883    5.74482241628929   18.90699067739683
C         5.47875633528982    7.61723769833843   19.38934677211818
H         5.13428638336074    7.27055963768668   20.35569717690782
C         5.20602772516890    8.90909156427701   18.98095848838407
H         4.66552848573466    9.58181163235147   19.63315268798469
C         5.59183169572784    9.32894849307443   17.71698911871436
H         5.33189166090659   10.32399160424581   17.38316408957386
C         5.63896651959685    9.65520887286882   14.74495880289470
H         4.61621266762113    9.33810540376965   14.93860121260641
H         5.80456613065257    9.64597631581358   13.66828103727127
H         5.75907433978616   10.67773715794590   15.09814593296168
C         8.05082398621948    9.28761974730736   15.29516039105088
H         8.17636696953583   10.16219062105456   15.93298016566047
H         8.23237840153980    9.58721488132866   14.26288862603201
H         8.79539823055100    8.52348419946231   15.57690383992311
C         7.31361394129923    4.42223727491556   13.22781538685412
H         6.84897205517014    5.32327732902595   12.80935949798254
C         7.62598412083203    3.45641039095369   12.08807788154433
H         8.06477658137350    2.53879687105886   12.48806354577547
H         8.34098770737549    3.89614786139006   11.38978338090668
C         6.33650403002347    3.12019960894697   11.33855935519937
H         6.55251732557589    2.41584742404970   10.53165093293219
H         5.93526464003782    4.03114062046884   10.88727726097098
C         5.29359910476510    2.52561701675807   12.28093791671620
H         4.37323653073818    2.31929319134785   11.73026085334091
H         5.66542906540221    1.57692761821622   12.67649352146394
C         5.00976272334072    3.47797259321742   13.44025539394893
H         4.28369468739876    3.02944059651341   14.12161406920609
H         4.57866495160301    4.40522537867913   13.05624226396837
C         6.30428797740828    3.78526909144150   14.18427826199038
H         6.11866872113696    4.46384474754692   15.03419333671267
H         6.71201394851408    2.84922623141212   14.57375252896767
C         9.88772938673444    5.78030293499517   12.89317217140623
H        10.15144705264261    5.02533013682693   12.14567336101990
C        11.14680114423431    6.26918220859045   13.60778001938080
H        10.84182421033035    6.99061709589580   14.37530705515836
H        11.63870236691626    5.43218377217112   14.11015615901237
C        12.11659732555722    6.93827368220926   12.64036340905746
H        12.99623342538604    7.29110560282108   13.18333396051345
H        12.45289977027918    6.20819096314167   11.89941030610419
C        11.43552003976793    8.10365006033783   11.93060591941748
H        12.12467488408200    8.56484109177107   11.22003514265931
H        11.15548214731382    8.86050111236935   12.66680314494020
C        10.18444706727994    7.61744479031929   11.20644287562764
H         9.68930322645475    8.45681940232960   10.71334873067650
H        10.46898639338276    6.89832118378597   10.43351031952527
C         9.21861426613696    6.95621110473682   12.18702214484468
H         8.32971542186768    6.62089529565936   11.64800401148801
H         8.91066101747552    7.68824330482519   12.93709860695474
C         9.60062592669905    3.43296298810083   14.53273267842795
C        10.58925767231914    2.82193053990856   13.77550507253016
H        10.93042909295642    3.27448925453008   12.85794811840248
C        11.16059283465773    1.62655075294969   14.18196566075583
H        11.92622879166848    1.16524730716587   13.57641643255131
C        10.75929180847815    1.03022566215426   15.36382176299177
H        11.21182837125020    0.10486295421030   15.68754038027440
C         9.77926404067096    1.61960457156871   16.14423536850396
H         9.48039025577912    1.16913579140623   17.07924978966895
C         9.19859035220118    2.80771886432015   15.72501033311638
C         8.45174001575667    4.16482646117403   18.66460843024003
C         8.00574061028296    3.20368692664595   17.75144489418454
C         7.27979059117935    2.09585805618043   18.15509216865401
H         6.92695560068710    1.38529362544953   17.42189390662325
C         6.99620718191398    1.93250843505920   19.50082423837473
H         6.43287080957344    1.07235823696534   19.82962863647300
C         7.41756580523737    2.88075512236180   20.41756752330149
H         7.17982628796749    2.75782637357632   21.46385274135507
C         8.12819492789589    3.99562985213957   20.00494308582127
H         8.41462065445669    4.73655969869735   20.73375409664127
C         9.42694818221460    6.83143443200997   19.25335136352341
H         8.41188001942558    6.83173324435347   19.67537457761943
C         9.63970727452349    8.21575702401157   18.63546295163005
H        10.65193984640013    8.29871609971145   18.23138804161270
H         8.92543848467658    8.35085595752258   17.81656539384771
C         9.41740075638523    9.29813343400774   19.68619085386721
H         9.58384289515753   10.28386083936036   19.24679770600056
H         8.37983536263233    9.25545604931440   20.02520763078508
C        10.35588308062151    9.09288930669005   20.87212370860799
H        11.39050173680829    9.21542209813498   20.54081233118738
H        10.16087992565075    9.84584283589498   21.63856585023391
C        10.17818324769034    7.69632145262012   21.46080192733992
H         9.16242536569384    7.59621606570766   21.85107107350009
H        10.87240180133068    7.55191291619312   22.29250234283789
C        10.42151494060709    6.62757674065561   20.39410010862019
H        10.32378142085738    5.63695689904764   20.84084640955645
H        11.44444295110612    6.73243096371660   20.02918827799805
C        10.98625750102094    4.81739509611984   17.59923406715217
H        10.84583965771523    4.21835451875507   16.68900145753948
C        11.51971064346139    3.87555890025890   18.67585833871739
H        10.77329017624140    3.11788646841759   18.92675344874910
H        11.75871491296890    4.42579014848695   19.58501511979075
C        12.78732146584148    3.19609173370924   18.15838748441720
H        13.18183142279509    2.52185296123005   18.92190072864680
H        12.54273770891592    2.59792359368359   17.27631810684290
C        13.84189462263892    4.23608433509268   17.78958390967227
H        14.12783306288319    4.79382670747482   18.68473201708238
H        14.73573485916942    3.73882116363308   17.40717903386320
C        13.29751184810921    5.20364837221238   16.74232527756531
H        13.07290975348268    4.65065446318277   15.82661173910178
H        14.05063573757736    5.95747664153666   16.50229088711786
C        12.02826958687106    5.87884229505147   17.25545129722857
H        12.27712672937033    6.46872322183521   18.13840035714793
H        11.62455504915978    6.55639290989384   16.49812664780095

