78
CSD_code = OQAPED | q = 0 | S = 0 | Stoichiometry = C30H45AuClP | MND = 2
Au        2.56122953307382    7.65401224205614    5.32926593171205
Cl        0.90197758853263    8.95601885870884    6.19383050251708
P         4.20922713381944    6.36463290207838    4.47141984893500
C         5.26761567770965    5.67115842863740    5.91444024686859
C         6.13572012098775    6.80091662272699    6.48407678502336
H         6.87468087830092    7.12749952815016    5.75386878140558
H         5.49522754851475    7.64716239349761    6.74907602920376
C         6.90011040453667    6.33615856583507    7.72612132574505
H         7.51988945557365    7.16602287259140    8.08437995100032
C         5.92133005086387    5.91938060208004    8.81712322923636
H         5.29827783701259    6.76816132439587    9.10615882375910
H         6.46470029299858    5.58324531455749    9.70261553066984
C         5.04894775001568    4.79487680936174    8.27214244102701
H         4.32084506983164    4.49206150285633    9.03227435805360
C         4.28995043503102    5.28364596974839    7.03712424468864
H         3.68526797411422    6.15698303188872    7.30166481368043
H         3.60831149608736    4.49721047163922    6.72792171596745
C         6.16637165531139    4.48192850992995    5.56899574649912
H         5.57760839852433    3.64337185172462    5.19739000954636
H         6.88411699256385    4.75595936459369    4.79425900394717
C         6.92077093572412    4.02126879270552    6.82088183337215
H         7.55398455298522    3.16730787334696    6.55322416187647
C         7.79327706389045    5.15521574556360    7.35275905741758
H         8.51870294986291    5.45737973044819    6.59304834935111
H         8.35027818689360    4.81678349385764    8.22866369341066
C         5.92209994828884    3.59875155667771    7.89643938510484
H         6.45667644802756    3.23781609665096    8.77742512870878
H         5.29800288941096    2.78101268302384    7.52768300341120
C         5.30118458019159    7.43749605829707    3.31322094412852
C         5.46123071757162    8.80701551474675    3.99537264705355
H         4.46933089633672    9.22682457339021    4.19078215195086
H         5.97457619872836    8.72820827218313    4.94879299566597
C         6.25543242691041    9.76584916525326    3.10644247127735
H         6.38221849191789   10.71342019606861    3.64090980279167
C         5.49745527403103   10.00793563590364    1.80662432088779
H         4.52553136388267   10.45748367906201    2.01977663850888
H         6.05323004597234   10.69516142733402    1.16540351604115
C         5.31177925104391    8.66792685363884    1.10521913071694
H         4.74135488782592    8.81178064134910    0.18051048184133
C         4.53779021402848    7.70506146134213    2.00923451884841
H         4.39132668852601    6.78298020780432    1.44874671583961
H         3.56200528513249    8.13849190284057    2.24687746557684
C         6.67564940535843    6.85757484081642    2.97276028024439
H         7.26303948654264    6.69173225522365    3.87566879534680
H         6.57119600525925    5.89978603321372    2.46055308831504
C         7.44300862779023    7.83362668602005    2.07463468795248
H         8.42484941571206    7.40198186549617    1.84759699616588
C         7.62635791238415    9.16451736663232    2.80114946112813
H         8.20260048383781    9.85101091743360    2.17757221729777
H         8.18275644485108    9.01119977798114    3.72911265922085
C         6.67463734637713    8.06296714184223    0.77589308039315
H         6.54803211743468    7.11664695420952    0.24378879305796
H         7.23525461611790    8.73771548412238    0.12593891111568
C         3.42358074388892    4.92094462421587    3.47988401593852
C         2.83967390381258    3.89608694923098    4.46128223606904
H         3.63049168287621    3.41486703484870    5.03492120774384
H         2.15695099532073    4.40463802403828    5.14807097563467
C         2.08081639251906    2.79269964049679    3.71956984435985
H         1.70118858106354    2.07556771516429    4.45630224560618
C         0.91643247034717    3.39226617923455    2.94060011505472
H         0.37608085870687    2.60754793511270    2.40714245778660
H         0.21740485286237    3.87706834047608    3.62507369425368
C         1.47491039384014    4.41364510634898    1.95687306659938
H         0.65310641896969    4.87514667400249    1.39894892155252
C         2.22238651913621    5.50877219856193    2.71972795475991
H         1.54405971710830    5.98314471997734    3.43609535515928
H         2.52640692974974    6.26928245294701    2.00687208297161
C         4.35713420772151    4.19650930555947    2.50770151595470
H         4.76414759002694    4.88692729270866    1.76929429396626
H         5.19494553100010    3.74819501145190    3.04425514543627
C         3.58441805910356    3.10122169563867    1.76492347814328
H         4.26861485009055    2.60041984230778    1.06998579868105
C         3.03431180878806    2.08352689835194    2.76058321806553
H         2.50635378921200    1.28980721942196    2.22833424701053
H         3.85467250195825    1.62296501486227    3.31695638479276
C         2.43020832967338    3.72545876770926    0.98323899866569
H         2.81498630361373    4.45027972346825    0.26159962488604
H         1.89868911635514    2.95147358232348    0.42590641739978

