44
CSD_code = OQARII | q = 0 | S = 0 | Stoichiometry = C16H17Cl2F6NSiTi | MND = 8
Ti        4.99173797965334    1.72576904811296    7.01679430161282
Cl        6.82898894895522    2.83711478938373    7.32951213283959
Cl        5.15603100678638    1.64944023832724    4.86266147967978
Si        3.03461816432475    4.00255391336932    5.99735690147899
F        -0.37246253057925    2.06417038699634   10.50219343304823
F        -0.63749563148181    4.04850270508139    9.72483208661853
F        -0.21311268430927    3.76110357161656   11.81360662064546
F         5.73785591312844    2.69497427931515   11.99898954238440
F         4.42306849819437    3.86524371891017   13.23515750985330
F         5.67225932843634    4.83263660796647   11.77774403625437
N         3.72464202411365    3.04382122383214    7.31702662974503
C         3.31192288782374    3.23673091226993    8.60462469377032
C         1.95391398170698    3.22133042698419    8.96202123124288
H         1.21322716436212    3.05009517261389    8.19563096289412
C         1.56516656012662    3.39143908367396   10.27855615052953
C         2.49268425281196    3.57043366981122   11.29639259566370
H         2.18073945796347    3.69042389261016   12.32104246804441
C         3.83582765689720    3.59289237994991   10.94546952451200
C         4.25025284791797    3.44121058996733    9.63314264821834
H         5.30616890928752    3.49766391125013    9.38301137721716
C         0.09446110800160    3.32580908493756   10.58923167233263
C         4.90401893490824    3.75434088039108   11.99350067805521
C         3.77250303720672    0.23179362122058    8.30529445450310
H         2.80312495945589    0.38532488906504    8.76476690337792
C         5.02615393804340    0.42163242686544    8.93053236997033
H         5.18914189644436    0.75517770574280    9.94749620962565
C         6.02555392346059   -0.08247258966715    8.06530335159979
H         7.07921118347367   -0.16531176914862    8.30225462081463
C         5.39396200607962   -0.58306884548117    6.91169957529010
H         5.87715550927885   -1.10747129426555    6.09629778608678
C         4.00241146222097   -0.37380674891583    7.04742730675428
H         3.23956554944790   -0.74228491939083    6.37119207219257
C         1.94355243234558    2.81008625146367    4.96498284128573
H         2.36300301666182    1.80377144859590    4.95342312421296
H         1.87064368218085    3.14897712198505    3.93724075575159
H         0.93122702792156    2.75078431286671    5.35605893745663
C         4.52624315216254    4.77574899469773    5.07729066484724
H         4.62809640634413    4.36928698959012    4.07593930536103
H         5.45836846426412    4.57920042667933    5.60878303469474
H         4.41676199000498    5.85261134570492    4.98308601927411
C         1.98592666856612    5.44235347368605    6.69117919704891
H         2.49844619993168    5.94678590190658    7.50477050659422
H         1.01640613158577    5.12674879925422    7.05890261305293
H         1.80852658389925    6.17523197017452    5.91177967357016

