107
CSD_code = OQECUJ | q = 0 | S = 0 | Stoichiometry = C31H63NO7S2Si2Zn | MND = 4
C         0.19754140527175    6.67744000873877   18.16983167305668
C        -0.46186737241403    5.35037202047892   17.79895524505304
H        -0.74556355945281    5.36932134276887   16.74895279708305
H        -1.35845769203667    5.21796903001115   18.39643597495483
H         0.22067217735838    4.52282547720985   17.97487142647219
C         1.43283213962211    6.91242068451482   17.29932648737385
H         1.89263010112050    7.86754742929520   17.54698382504366
H         1.12953112457580    6.91808195190077   16.25553741562710
H         2.15775279442810    6.11729414801667   17.45585940534260
C         0.59099361879024    6.69040839210387   19.64514629499269
H        -0.28123921446079    6.50374685663133   20.26278099539765
H         1.00219959564790    7.66035822282835   19.91481094395245
H         1.33693040318963    5.92294050985985   19.83772470607361
C        -1.05383803374453   10.50846740304586   20.17815660070341
C        -0.05324317736745   10.82493004614523   19.06740036316316
H        -0.54434746478038   10.73616399703094   18.10269765722318
H         0.77286300250782   10.11876815945703   19.09684789589713
H         0.33514196100715   11.83378448312807   19.18093562710193
C        -2.25257393715166   11.45554566037188   20.09419471532699
H        -2.93540060713158   11.26379274264289   20.91807400264327
H        -2.78368231856078   11.28422802381817   19.16131885982749
H        -1.92236129851390   12.48950287385222   20.14094123615495
C        -0.37797274164177   10.61910827467935   21.54888077000167
H         0.45986551962550    9.92898243502153   21.60889672443504
H        -1.08756211284687   10.36624248572992   22.33238267190336
H        -0.01812350972537   11.63151817643819   21.71016511610897
C        -3.67815184940070    6.82379406209485   20.45266650412474
C        -4.33083213493585    5.45722171687957   20.23076616867453
H        -3.58337905006530    4.67106407398475   20.30484123625202
H        -4.77270879401978    5.42050848213812   19.23867565300037
H        -5.10399426537617    5.28354754381926   20.97402950238716
C        -4.70977087090783    7.93671500842097   20.29873418945805
H        -5.09261902257976    7.94674317307666   19.28208585778706
H        -4.24275195708698    8.89822746398072   20.49042138720726
H        -5.53227745902760    7.78922961951197   20.99333087464647
C        -3.02320650461031    6.89623248767704   21.83337647966887
H        -2.47120020566787    7.82828864491998   21.91263084297108
H        -2.33005960743837    6.06830155248521   21.96402601595459
H        -3.77812223046259    6.85248624073468   22.61360314870013
C         2.67328924320722    6.68328847520846   12.98191266439644
C         2.14739524670217    5.38505284805483   13.58747876290486
H         1.33533913639257    5.00042216629800   12.97986833237644
H         1.75995696138736    5.56342183064879   14.58559980246069
H         2.94274416759870    4.64625409061558   13.63864794140104
C         3.84787912964058    7.21752373925774   13.80804191603841
H         3.54357217828194    7.35076414232435   14.84300324348044
H         4.17120058019785    8.17772631290421   13.41338281373091
H         4.68055097074881    6.52077910159629   13.77080660573942
C         3.09984667415937    6.44524855398103   11.53166390226326
H         3.53329047342837    7.34924929521923   11.11149081403690
H         2.22558509394819    6.17646561450797   10.94638326591858
H         3.83071015995084    5.64286737074790   11.47948350065436
C         0.07184623019100   10.14795253448280   11.43200109097734
C         0.40161949740948   11.52955735168277   12.00432058231926
H         1.24637349630968   11.45122060654301   12.68367702665513
H        -0.44341807282289   11.93769718128503   12.55183829763827
H         0.65780628909795   12.21312595973793   11.19911227469957
C        -1.14516708718324   10.22460629530022   10.50759149029329
H        -2.03132876264569   10.52809884206176   11.06070040171751
H        -1.32751768693046    9.24585963048175   10.07360982593382
H        -0.96596017421754   10.93766625071493    9.70688721323339
C         1.27819001791503    9.63120800607351   10.65634948342609
H         1.06362581943547    8.65071941518176   10.24494798089519
H         2.12874788493243    9.54433905791585   11.32505812669461
H         1.52074086471366   10.31642469929035    9.84776282847226
C        -1.24272520650840    6.02926208576663   10.86956229142718
C        -1.11238767128355    4.65445201731848   11.52611911029638
H        -1.19215361290486    4.76430882313613   12.60464291415507
H        -0.14974731793266    4.21004046847350   11.28285733991861
H        -1.90173625300701    3.99627979232003   11.17455802216721
C        -2.61786351946709    6.61918881627044   11.17638335690460
H        -2.71438523172868    7.61123501541111   10.74355508854825
H        -2.75253273112044    6.69603829251326   12.25154478205456
H        -3.39422758657665    5.97921990933640   10.76639970204515
C        -1.03183509660267    5.92013099264880    9.35549851600661
H        -0.03853272820162    5.53092859751006    9.14448320125797
H        -1.12377897557641    6.89873573748187    8.88978230011538
H        -1.77169509928398    5.25316765750761    8.92246885383708
C         1.05406603899961   10.03076227694278   15.41758269318435
H         1.31034959785247    8.98381709267203   15.40224814233358
C         2.03329413702002   11.00643647413204   15.39778361943660
H         3.07565137872237   10.73079760003454   15.38769503785296
C         1.63783142292285   12.33603669385980   15.39049511851608
H         2.36915108579941   13.13106415114693   15.38343824417002
C         0.28599052098174   12.62383450929478   15.37504499874237
H        -0.06006063715775   13.64569667760307   15.34806294482815
C        -0.63987631545190   11.58229687078055   15.39587833364813
C        -2.10787776612745   11.84504266639138   15.38059077271338
H        -2.30502445449568   12.91419051723342   15.45904178262549
H        -2.56212997020172   11.32914224107100   16.23186881384006
C        -2.80950286594544   11.30896890425555   14.11649162015835
H        -3.88830459973286   11.40290689358492   14.27005742406735
H        -2.52646363453363   11.91393559730071   13.24494299161065
N        -0.24195806076485   10.30880475895461   15.44117119294539
O        -0.71963730657195    7.73258346098278   17.87809989584485
O        -1.51428901227186    9.17203450757548   20.07180874508048
O        -2.66021226626927    6.93967372033206   19.47005734143906
O         1.68152697240302    7.69976991614645   13.00167126241769
O        -0.25826024136255    9.30016619034826   12.53469122604391
O        -0.20113965577196    6.87601637476089   11.34564219042620
O        -2.56500708791040    9.94702323034508   13.85979578059137
S        -3.11888665781731    9.26080779600092   17.37860108277240
S        -0.99771300321946    6.89631171097163   14.33284887724571
Si       -1.96342372886007    8.23884243168975   18.81490460861377
Si        0.08387519708099    7.70074424365259   12.71637541456200
Zn       -1.70812294674716    8.65056120569162   15.64687226390316
H        -1.74961029409374    9.83868280317567   13.32806462137271

