47
CSD_code = OQECOD | q = 0 | S = 0 | Stoichiometry = C20H18Cl2N2O4Zn | MND = 4
Zn        5.01539881292202    7.99928404515090    6.49947559079099
Cl        6.49569608083770    9.01132371395886    5.24154306967117
O         2.29445545260488    4.80196044615611    5.72722787471943
O         4.91304029493533    1.78454901329298    4.91005967629876
N         4.13218036430809    6.58810214790149    5.02230285809495
H         3.18945882112890    6.26117448816714    5.29068825029282
H         4.08508680552959    7.20879622213392    4.21760551028470
C         4.94329148413563    5.46556046399760    4.74580063779724
C         6.22672735144333    5.64212375811969    4.25500080570304
H         6.59235422451603    6.64434334233592    4.09229781228011
C         7.04409431312712    4.55225276664011    4.01000965412557
H         8.04484891225492    4.71709647416405    3.64275437776978
C         6.61074014012590    3.25551336576400    4.22636081041673
C         5.31246742371571    3.07415173281812    4.71488505192813
C         4.46271824867426    4.16057717686806    4.98758691323592
C         3.10079770981142    3.91057166665883    5.46915107582715
C         2.76655353631243    2.50432117825437    5.60178630161959
H         1.77201194498384    2.25348189506934    5.92853582317447
C         3.67120263704211    1.55213130982608    5.32884051804369
H         3.47332625584490    0.49235803223939    5.42247160216532
C         7.47321157726616    2.07058355735688    3.92160472701605
H         7.36086615384847    1.30388546965805    4.68446031633077
H         8.51573752291705    2.36829848119716    3.85972526843436
H         7.18162669557109    1.63437966285059    2.96607236015839
Cl        3.53752178328980    9.01057428907026    7.76087463919942
O         7.73677924344549    4.79631918554438    7.26876342012838
O         5.12049245389321    1.77927813294850    8.09434088147231
N         5.89878018812355    6.58320561696144    7.97170664142225
H         6.84083356197963    6.25569632529654    7.70138977785177
H         5.94867509473535    7.20272401274283    8.77720933594376
C         5.08786241057742    5.46068558676030    8.24965405976181
C         3.80404890268115    5.63765194247253    8.73925742254847
H         3.43789270000435    6.64004701534123    8.89976173467396
C         2.98709496196886    4.54787075851556    8.98612311551862
H         1.98599013628258    4.71300961214552    9.35230297354329
C         3.42131756214465    3.25087220936544    8.77308058520677
C         4.72009759303458    3.06909397048924    8.28600059060613
C         5.56925035116025    4.15540153784220    8.01101676096570
C         6.93135487718585    3.90503013199899    7.53006324598392
C         7.26691683880588    2.49867011593924    7.40211730895198
H         8.26188499164795    2.24768397841143    7.07676873524121
C         6.36281708428885    1.54657023719019    7.67722134997941
H         6.56158487278366    0.48667590515533    7.58685457239222
C         2.55911911469110    2.06624686017215    9.07987692982385
H         2.67540284245537    1.29614534707976    8.32106155411573
H         1.51598356975402    2.36293829492297    9.13640178324386
H         2.84740610121242    1.63488852305070   10.03860569524843

