94
CSD_code = OQEGAT | q = 1 | S = 0 | Stoichiometry = C47H40N3OP2Ru(1+) | MND = 6
Ru        0.38669113030674   10.87766593080112    9.74338081890455
P         2.33704189623712   11.20890401056579   11.00208838224994
P        -1.67136502611609   10.54350811862587    8.65383412869109
O         1.26036184782870   13.02178447460468    7.85070249959014
N        -0.22804215270909    9.50066896104028   11.19017140303039
N        -0.01808210505255    7.64006293966253    9.74154967341697
H        -0.28393540704298    6.66683310492826    9.66266386376184
N         1.32264478520217    9.29125884310774    8.70321530606546
C         0.91375342304217   12.17511584463935    8.54908572513696
C        -0.36168959307540    8.19152675466111   10.96045698668060
C        -0.87142299194395    7.31126804628529   11.92485677071501
H        -0.97530640561013    6.26431404611045   11.68498951847722
C        -1.22521410168924    7.79056762110418   13.16393234514698
H        -1.61622552585155    7.12788575345672   13.91903703169690
C        -1.05536330023750    9.14716213626509   13.41336324561463
H        -1.30521564862179    9.57573407155151   14.36896888440052
C        -0.56258678069038    9.94833951320886   12.40853092007357
H        -0.42873337285669   11.00998387652395   12.57275787650809
C         0.88474184346304    8.03007608459199    8.77209483106371
C         1.31515780098735    7.03869051222199    7.87935273553172
H         0.90750484231756    6.04222335020161    7.95716454565075
C         2.25557465286762    7.34419615968865    6.92210228861122
H         2.59758805214881    6.59487968738637    6.22671978392037
C         2.75978088515927    8.63958940580370    6.89280976973170
H         3.51594235693593    8.93190670227180    6.18418892729702
C         2.26185905450000    9.56308796510595    7.78409943789412
H         2.63937362970256   10.57707641907467    7.76885294314019
C         2.66441524019542   12.82835322590543   11.76319074709207
C         1.78006688645571   13.88818108952666   11.61130621383447
H         0.85993837483819   13.73690041353683   11.06094469804936
C         2.08227737821241   15.12393970554740   12.15884460574165
H         1.39438811422738   15.94688056686900   12.03714064647009
C         3.26468443901856   15.30464352842871   12.85571947172410
H         3.49963959994418   16.26859003470701   13.28047387067346
C         4.15302757792706   14.24927794924034   13.00461970023827
H         5.07732428989957   14.39181258698656   13.54387049742427
C         3.86029564718413   13.01575425675049   12.45741009817941
H         4.55485366168997   12.19246287730961   12.56242188738443
C         2.46270451208478   10.03889331331257   12.39413605333488
C         2.51594662968455    8.67570134202719   12.10123082953761
H         2.55739716409082    8.35122737534166   11.06670700626645
C         2.51572503894468    7.73987749425114   13.11746689672239
H         2.56889284363599    6.68670630504890   12.88218552305834
C         2.44590887560137    8.15389091455901   14.43854236270184
H         2.44587910574965    7.42303318064427   15.23239314230864
C         2.37325255636068    9.50397512817915   14.73612957001571
H         2.31299505891917    9.82744766381374   15.76413262571755
C         2.37480774393760   10.44513667413488   13.72094113729075
H         2.30807430051808   11.49708146256753   13.95891709027066
C         3.93571367659134   11.02282282399776   10.12961118922038
C         4.22509888138857   12.02339039662526    9.19983293697543
H         3.52566487378345   12.83929998356219    9.06469914245659
C         5.39948304030981   11.98767298658448    8.47415199052848
H         5.61533430843194   12.76883642343956    7.76105853061960
C         6.30096038535247   10.95198283840904    8.66872837893813
H         7.21978674210284   10.92128190738642    8.10359012548738
C         6.02727228578418    9.96665568006921    9.60090631292442
H         6.73603703496111    9.16955498736308    9.76923547594009
C         4.85094964515311    9.99797743702424   10.33242601906487
H         4.66829553326425    9.23304436306119   11.07277809649864
C        -2.72326748549391    9.30765641635552    9.48260083195810
C        -2.86086886933769    7.99800847639731    9.03463458762118
H        -2.39010241698344    7.69098090443944    8.10969503400402
C        -3.60983671689462    7.09188769262754    9.76590285669006
H        -3.73006303532211    6.08081147560551    9.40482782276847
C        -4.21006758972906    7.47902942615315   10.95269013219894
H        -4.79677119626454    6.77009131595715   11.51644376058795
C        -4.05933347657722    8.77784791824008   11.41386712421557
H        -4.52504401023200    9.08087581416586   12.33938996987060
C        -3.31663520563703    9.68733585090700   10.68571121899523
H        -3.19290885397884   10.70525230677829   11.03445225754729
C        -2.81050583698855   11.96629679937245    8.54588097910085
C        -2.28214883953089   13.25024484804924    8.47165860124512
H        -1.21373707780768   13.39009560005061    8.55897960616301
C        -3.11775470205708   14.34072987971543    8.30975848703521
H        -2.69885435935178   15.33407861572429    8.25527145486737
C        -4.48743716742575   14.15800691761837    8.21942801497972
H        -5.14048887586406   15.00810028101558    8.09467110232147
C        -5.01956207114505   12.88095867885561    8.29428911007393
H        -6.08735704987622   12.73481466214476    8.22917742361530
C        -4.18881970193786   11.78721628888121    8.45180126749540
H        -4.61948657420385   10.79828166258207    8.51975833767462
C        -1.69464691885626   10.04360354278024    6.89600946425151
C        -2.84242016745883    9.53224580131432    6.29359213051281
H        -3.73996044795056    9.37984252372689    6.87447255820589
C        -2.83790044911991    9.22184302203827    4.94689428201893
H        -3.73020862353462    8.82396365210812    4.48750453034158
C        -1.69816824380994    9.42666761721423    4.18470119008952
H        -1.70054546912248    9.18195319528552    3.13369198042222
C        -0.56329593513167    9.95992114620686    4.77119224571729
H         0.32113556693447   10.14016797806350    4.17875044662767
C        -0.56443606202411   10.27231850301972    6.11895382918151
H         0.31424671110957   10.71200173207094    6.57291012877510
H        -0.35527408526427   11.95217220306766   10.53712371805104

