55
CSD_code = OQEKEB | q = 0 | S = 0 | Stoichiometry = C24H17N5O6PtS2 | MND = 4
C         1.65696033012847    4.56534853555272    4.95500408681623
H         1.03133991107470    5.13854013726129    4.28421380133738
C         1.39425746489951    3.24139675506468    5.24106970405176
H         0.56142919367654    2.74405783466128    4.77330158235852
C         2.23047193792979    2.56740200142962    6.12265087540051
H         2.07662707704376    1.52326860134139    6.34555480183363
C         3.25403880750175    3.26605268362417    6.73039659001142
H         3.90583047068886    2.78379350269515    7.44247622536433
C         3.44726617211980    4.61511782764983    6.41704051386016
C         4.62244587856671    6.66574234629448    7.24866240464981
C         5.44431400717593    7.11211634656708    8.28698198446856
H         5.94754136258068    6.39707914777792    8.91910344808748
C         5.61229255238183    8.46840781131709    8.47814967099896
H         6.25461657204055    8.83178505256240    9.26500299929449
C         4.93467426376419    9.35217317287086    7.64675517651924
H         5.02551676063404   10.41790109030704    7.77377714672123
C         4.15627016479408    8.84241779327323    6.62765524269356
H         3.63558682581776    9.49284170473873    5.93482607669868
C         5.82895074861169    9.52400378148264    1.98104457849155
C         6.38647309276051   10.24832049860094    0.95521809757875
H         5.76304822205772   10.81153812469699    0.27871219789456
C         7.77026468938345   10.21907830511285    0.81528290800930
H         8.23636238724665   10.77101735825915    0.01232203228145
C         8.55567982612738    9.48267952980777    1.68971837095539
H         9.62791065145161    9.46943789562169    1.55859170495998
C         7.98084547483125    8.75581073025766    2.72196225634382
H         8.57568441356911    8.16751400727563    3.40324454717590
C         6.60352603891611    8.78863025662239    2.86173092536701
C         5.78932057887144    8.03317281799139    3.84598399356906
C         2.86403340502563    6.27609495676326    0.27050502296527
C         2.98153152756939    6.21851169272499   -1.09707842051733
H         3.91732990209537    5.94148480522506   -1.55665719347655
C         1.86312340345877    6.53858838243603   -1.86014303018036
H         1.92779042125338    6.50973070741006   -2.93793031069625
C         0.67099916363116    6.90284212555734   -1.25224496062219
H        -0.18272455978898    7.15407748284033   -1.86464199632581
C         0.56478593727828    6.95723385739078    0.12992126384964
H        -0.35107307614784    7.25084547089095    0.61875774043400
C         1.67767428960764    6.63458369197640    0.88778623036150
C         1.79320940594969    6.68217512417796    2.36821266908145
N         2.67867508095057    5.23566543983489    5.50405705147070
N         4.01488783092392    7.52686435526713    6.42177429133140
N         4.42344443807365    5.30789260800383    7.10497280155739
H         5.01663587799875    4.73300990716429    7.68724297171821
N         4.48196511022595    8.32060299614020    3.75755770824669
N         2.98757763130924    6.25059779354492    2.79892313662123
O         6.24166893067035    7.25275433157852    4.68088764990283
O         3.67592764826233   10.58115838624857    3.06556225652290
O         3.27159194088649    8.75547150377503    1.51223341761558
O         0.89741064128797    7.01222128540837    3.13819490307366
O         4.34989273786965    4.53155508024475    1.59389207905368
O         5.18406664453501    6.81160639615509    1.55541569341394
S         4.13189410646072    9.33534420285245    2.50339734493894
S         4.04180261302576    5.93904718795465    1.56952217627579
Pt        3.43623307092327    6.86429457763192    4.65354555960036

