55
CSD_code = OQEKAX | q = 0 | S = 0 | Stoichiometry = C24H17N5O6PdS2 | MND = 4
C         2.82410927348555    7.69042267592310    6.67789522174150
H         2.33318582788656    8.34209894127389    7.39436559801882
C         2.12471697763781    7.07334257313642    5.65780024403483
H         1.06619403240538    7.24064959005245    5.54974228249272
C         2.80932550383279    6.22038334145978    4.80034635323992
H         2.29074509632732    5.70196089076657    4.00882632566543
C         4.16834754978538    6.04500017562322    4.97151248662321
H         4.72876710890421    5.39116768647785    4.32150770171735
C         4.81302358897283    6.71495442655179    6.01613978465762
C         7.09612314081404    7.31859386539726    6.86828280915244
C         8.45817722177127    7.11506410875046    6.61797753538530
H         8.77105874852547    6.33050231523452    5.94642231292531
C         9.38682622306111    7.92066501293559    7.24628166380006
H        10.44119636571273    7.76868121436215    7.07580368216991
C         8.94070028229456    8.93601023305857    8.08329030653087
H         9.63406350852969    9.60222790771060    8.56835494226934
C         7.58287528436302    9.06427836349351    8.30256187965515
H         7.17779963426230    9.83773689877884    8.94312919518661
C         5.29642440982093    9.27770620732304   10.83137716185269
C         5.35603508464219    9.45325898114736   12.30432147922198
C         5.10366859658179   10.60827621178872   13.02460095648298
H         4.86447837949978   11.52369998067490   12.50646199661174
C         5.15668638583984   10.54459629506382   14.40957962446562
H         4.95984659108084   11.43188782705820   14.99350764707298
C         5.44805041751700    9.35319107644625   15.05664151718197
H         5.47544820203807    9.32274638373963   16.13597967148134
C         5.69408576944062    8.19149010734222   14.33132586369208
H         5.91169591666490    7.25593634562791   14.82225791993839
C         5.64102807141607    8.26653857580584   12.96092921102132
C         3.64875502011329    5.62331731548241    9.40742595612801
C         2.84233501986939    4.81840889915824   10.35858364712007
C         2.80608941372198    3.43878575635010   10.46987887893680
H         3.38003460101096    2.82923981515871    9.78959413417197
C         2.02933213193291    2.87950715269431   11.47420189098444
H         1.98786920328437    1.80546293352048   11.58265631094582
C         1.31247832204419    3.68153237960449   12.34954904159973
H         0.72069553756937    3.22656080459370   13.13015581457536
C         1.35526603797252    5.06788075352057   12.24044857440136
H         0.80995550196163    5.70395364938844   12.91981829266249
C         2.12655487203468    5.61028855718393   11.24143390254473
N         4.13562446533938    7.50864195853861    6.85263235053960
N         6.17964028471472    6.56422727892701    6.15882181299172
H         6.58268465398517    5.82354459235273    5.60157401126092
N         6.68238322218055    8.26394984250500    7.72579278529018
N         5.70787627129821    8.06434280828168   10.44218793636085
N         3.38937564523189    6.93229608694488    9.49345152323582
O         4.96154927008125   10.14018535532433   10.01645454635126
O         7.25788942350308    6.56989590271111   11.71805643214011
O         4.89912188122518    5.98613825840880   11.70029737090094
O         4.44837716141080    5.16114920175066    8.58722453993068
O         1.21660057530129    7.89463643266988   10.26411577506027
O         3.11360442967988    8.07385030561669   11.77500741695169
S         5.89136781921330    7.02702732018940   11.69676488019595
S         2.43081145848641    7.30748316183933   10.77112554366152
Pd        4.95564458392388    7.81482526542294    8.60632325683423

