47
CSD_code = OQENEE | q = 0 | S = 0 | Stoichiometry = C12H28Cl2N4Pt | MND = 4
Pt        2.49995193989710    2.14876542218847    9.96245126083996
Cl        2.26714363119015    0.84486620493109   11.80592762866002
Cl        4.16729203582963    3.36490966566394   10.89940352356755
N         2.90139334275367    3.28693195074206    8.28728552112444
H         3.86665614508019    3.11393413375238    8.02220474391880
N         3.17366845274591    5.43251871036018    7.41664477967974
N         1.01080666412790    0.99671774396806    9.12973068145223
H         1.36246185111639    0.29206297949029    8.48940388877604
N        -0.79888901882973   -0.41789607914100    9.51010011056069
C         2.46613766392483    4.47772483249781    8.05566119825340
C         1.06393078910976    4.78414577951171    8.49192567052866
H         0.48727096913072    5.27004791854148    7.70991010293533
H         1.08322454518609    5.42158680085354    9.37430443723123
H         0.58896930386385    3.84312503277035    8.75982409837833
C         2.68047271051095    6.78084551739541    7.22232673219863
H         1.94316674088415    7.02336585013806    7.98723114433121
H         3.52068184847754    7.46839595400826    7.34993061341535
C         2.07509108685675    6.97370811933922    5.83167333433744
H         2.81214529525136    6.76404207078831    5.06021543650194
H         1.73543491812051    7.99894870940758    5.71456542909420
H         1.22935049926482    6.30728590758879    5.68189334054904
C         4.55808913553342    5.20804478861721    7.02906662224623
H         4.66167865431492    4.20515404262490    6.60441006419505
H         4.79638710817998    5.91741952078153    6.23274190573681
C         5.51492493346001    5.39410957636863    8.20539108606476
H         6.53142305981859    5.16468522770018    7.89828950549335
H         5.24225527415378    4.74515171649546    9.03703868978810
H         5.48441341162811    6.42195868890377    8.55877678568759
C        -0.09541476600634    0.71251469501295    9.73231171326436
C        -0.66404321552273    1.74284615755180   10.66182217707660
H        -0.88549527634790    1.31086875411188   11.63274577988171
H        -1.56760875675396    2.18579744580056   10.24361650588996
H         0.08957308093951    2.51974495598702   10.80675253157033
C        -0.24676673851460   -1.49490623083049    8.70735344371202
H        -0.70303874214409   -2.42935609484266    9.03813415704971
H         0.82909759154018   -1.57835857384183    8.89182348210828
C        -0.52418063081603   -1.29824430102881    7.21696436569243
H        -1.59583305477295   -1.26117494079263    7.03473056610371
H        -0.10528865689614   -2.12464241083140    6.64945214100552
H        -0.08685954186970   -0.37059290097110    6.85626722476948
C        -2.03249976638887   -0.71925938662450   10.20955137370691
H        -2.57011320730572    0.20583111549930   10.41569427119965
H        -2.65733038773983   -1.32240377921068    9.54372815340585
C        -1.78022471298904   -1.47713682352130   11.51335224498354
H        -2.71494243881957   -1.61659769626675   12.04962878051167
H        -1.08807457927705   -0.92745953543789   12.14574306407889
H        -1.34688919331484   -2.45432723650666   11.31539968934079

