33
CSD_code = OQEWEO | q = 0 | S = 0 | Stoichiometry = C14H13NS4Ti | MND = 12
Ti        2.71642640223125    1.97336593607107    3.70221003094235
S         2.08736650620577    1.15825942171128    1.54050338041032
S         1.12687339765495    3.71727517850697    3.37215844478008
S        -0.91399163066645    0.85794950623938    0.99796097192225
S        -3.66178793810440    2.09570162523595    1.60835729121661
C         1.40248644886757    0.07804473829804    4.24939292353967
H         0.84475835812354   -0.55236044493325    3.56710136443175
C         0.89522986387352    1.16793203244840    4.97550571776077
H        -0.12453676487017    1.53258456840855    4.95634545116853
C         1.91003137836655    1.62170564337443    5.85231169022498
H         1.78847049540568    2.38937824336914    6.60781893950751
C         3.02106375404723    0.76847065606628    5.70115537440942
H         3.90134048612804    0.75887483337815    6.32945171561550
C         2.73334389637698   -0.15042024022340    4.67127223522448
H         3.35347728305070   -0.98486904121356    4.36449275723468
C         4.63034698565909    2.94698166160338    4.66536694524695
H         4.81510470439895    3.13080583635449    5.71609893275118
C         5.05657734430408    1.82120308965969    3.92772637697721
H         5.62569032459356    0.98414313844470    4.31127678502321
C         4.75039484383095    2.04553557336830    2.57218542114426
H         5.02560464357044    1.40675999829978    1.74109672904910
C         4.14055845357396    3.31660536998546    2.46877154885725
H         3.85360282025250    3.81173207269540    1.54893357679552
C         4.06883396760543    3.87235491458711    3.76467918166176
H         3.72790241208246    4.87158762896987    4.00578558753831
C         0.45403951853297    1.62961898288540    1.75908124832429
C         0.01970113518986    2.69899211783560    2.52698492604158
N        -1.31521660053758    2.90783074793095    2.52681478824197
C        -1.94570170399993    2.06095465034730    1.79410504257212
C        -3.90772867556306    0.68837341505149    0.48486803669667
H        -3.38018405227447    0.86861804259261   -0.44714951752650
H        -4.97592886866708    0.62537294343013    0.30667343564763
H        -3.54964918923651   -0.22226284078067    0.95606266657935

