43
CSD_code = OQEWIS | q = -1 | S = 0 | Stoichiometry = C14H18AuN2S8(1-) | MND = 4
Au       -7.98824353058259    7.56286051918028    9.13254706905860
S        -6.22468736802416    7.44964321198029   10.64456643451307
S        -7.36910963754038    5.50144507871402    8.24865907274082
S        -5.08328249517045    3.69969016992221    9.03458551331139
S        -2.77460147303987    3.11053985898627   10.67384596174254
C        -5.99555389769245    5.16101466405492    9.24809565073427
C        -5.47722342038153    5.91033835881247   10.24780776270945
N        -4.35470447509787    5.35783817595408   10.87367158991075
C        -3.99809758317544    4.16392041050630   10.33852432429290
C        -3.68490981738585    6.05944054196944   11.99925941911626
C        -3.16424624778552    7.40563143730614   11.48582253135737
H        -2.47827257269806    7.24300584684537   10.65663197326246
H        -2.63177806020264    7.91493470846666   12.28442576103962
H        -3.97235192649571    8.04748696152630   11.15238992062117
C        -2.48766602826198    5.30552529780949   12.57674019233914
H        -1.70636212647123    5.16311006714821   11.83751398765913
H        -2.77483119388009    4.33625744491718   12.97113666492469
H        -2.08393272032844    5.90228819411844   13.39242124813530
C        -4.69972976893129    6.22452358601028   13.13541812709850
H        -4.21232456820714    6.68595469222031   13.98992396298213
H        -5.07940044534373    5.24937385366680   13.43464702362435
H        -5.53441305062980    6.85123008377677   12.84129859082518
S        -9.75137859820324    7.67740025626011    7.62169661666355
S        -8.60397098472903    9.62755482298526   10.01429382281562
S       -10.87900848629629   11.43783030421265    9.21663045687083
S       -13.17837877684160   12.03459881119740    7.56720517905248
C        -9.97337409733691    9.97135533255206    9.01030663949761
C       -10.49218409376898    9.22180781783892    8.01103124599410
N       -11.60983532720358    9.77809745549638    7.37983901859424
C       -11.96203572717066   10.97546268141005    7.91024436186564
C       -12.28000901547949    9.07600286370808    6.25476858215294
C       -12.80960795441024    7.73468390920207    6.77181182608757
H       -13.49796513414998    7.90441751835529    7.59759865296984
H       -13.34159127870904    7.22474000275329    5.97329248392909
H       -12.00612113870823    7.09010407701350    7.11117065778052
C       -13.47124260539279    9.83424472442664    5.67055990856769
H       -14.25401434826238    9.98389625514624    6.40678065204639
H       -13.17742282997590   10.80033372711954    5.27326444867746
H       -13.87578224401094    9.23652852312963    4.85598099507291
C       -11.26281278268144    8.90085464689877    5.12223166674796
H       -11.75054845016971    8.43973972038084    4.26773523959443
H       -10.87612813753925    9.87262230206406    4.82100596391135
H       -10.43296558163454    8.26987108395628    5.42081879911003

