95
CSD_code = OQIDEY | q = 0 | S = 0 | Stoichiometry = C44H40CdCl2N4O4 | MND = 4
C         1.65433158462374    4.35022294320882    9.91992192467133
C         0.03145842225051    5.57847349101328   10.62965928879245
C        -0.77443906915341    6.51315572129767   11.27278191304858
H        -0.33894689103538    7.25916693238847   11.92372453799558
C        -2.13206456114871    6.43186201392533   11.04465627985607
H        -2.79433343278596    7.13581250272291   11.52552642640404
C        -2.68027731781130    5.45848459425167   10.20321249399428
H        -3.74985532820161    5.43595899316613   10.05682342417959
C        -1.89298741286687    4.52616724810717    9.55697580337556
H        -2.32131949135270    3.77242311713690    8.91476471211993
C        -0.52657396797922    4.59652768963619    9.78575494373184
C         2.99360034191561    3.78289832855070    9.80792701495104
C         3.21501298952514    2.42109274870956   10.02641145488171
H         2.38578546379395    1.75751642727011   10.22310957883810
C         4.49710159416549    1.91875383882027   10.04039491761209
H         4.67820852428670    0.86936275646979   10.21506600270182
C         5.59581257739028    2.76263184140255    9.84912920656065
C         5.37476433470840    4.11386374733250    9.59876395670123
H         6.19578020226251    4.78974530135813    9.42411486611203
C         4.08678541430547    4.61506283135048    9.57656052932038
H         3.93285320398079    5.66253322398571    9.35748269032213
C         7.96292524221729    2.99252617382250    9.88075437568588
H         8.06697016750121    3.47566915476170    8.90481797195631
H         8.80578465814397    2.32294362630172   10.04348920112166
H         7.94656586864636    3.75416116505774   10.66674460536552
C         0.43119342027315    2.79725575239910    8.35219265338677
H         1.43924793393447    2.42433173223215    8.14419367693215
H         0.03629479851708    3.23479652137575    7.42670041537214
C        -0.47301299889934    1.67350918138702    8.79792706464887
C        -1.23553898956621    0.97528387850574    7.87535536524403
H        -1.17539100079034    1.23128502570602    6.82707700639895
C        -2.08026198070998   -0.04796123477633    8.27099414941227
H        -2.65738395801523   -0.56659300432228    7.52211151260005
C        -2.18180820337478   -0.38345540891911    9.61721740057206
C        -1.41292383521304    0.31655741528730   10.54876848174750
H        -1.49911456287334    0.06046089838459   11.59221977407780
C        -0.56964070160291    1.32566859432276   10.14050512795121
H         0.00940010853942    1.85962291586393   10.87829985473120
C        -3.79600799235523   -2.08983504852884    9.23319907675117
H        -4.50430090532548   -1.44290816704482    8.70555073871341
H        -4.34736563620586   -2.79550736974490    9.85238039683002
H        -3.19483034909343   -2.64262579864459    8.50415966673124
Cd        2.84844524023704    6.85366403589935   11.64357943103285
Cl        1.93966251184072    8.12515264244589   13.39984385840441
N         1.38923333619492    5.39393507923936   10.67817118146132
N         0.53251690190761    3.83594080517474    9.34548928203458
O         6.81607549461606    2.17509321047380    9.93339748012480
O        -2.98747536690857   -1.35570768008393   10.12070993886594
C         4.04258390894389    4.35023400046697   13.36722624233644
C         5.66545346143385    5.57850179666202   12.65750819885170
C         6.47135037676644    6.51319271652871   12.01439670394487
H         6.03585882903931    7.25920520810521   11.36345516578508
C         7.82897549264224    6.43190316066493   12.24252719798667
H         8.49124432881709    7.13585657350774   11.76166115184052
C         8.37718858234026    5.45852353396833   13.08396797049854
H         9.44676564330410    5.43600426385020   13.23036500804267
C         7.58989974599505    4.52619809330740   13.73019421394894
H         8.01823172204257    3.77245393295855   14.37240532862750
C         6.22348737354813    4.59655119636500   13.50140610593984
C         2.70331799766310    3.78289881823136   13.47921317670527
C         2.48190107537506    2.42110125135921   13.26068596841185
H         3.31112636253643    1.75752955045984   13.06396296669806
C         1.19980989866417    1.91876707134225   13.24669404765775
H         1.01869929992169    0.86938142131815   13.07199492759003
C         0.10110142577696    2.76264258177746   13.43798825789670
C         0.32215530640505    4.11386325745015   13.68840319346330
H        -0.49885563166267    4.78974293906068   13.86308299959935
C         1.61013627381480    4.61505251012818   13.71062330197193
H         1.76407532600010    5.66250104489385   13.92977240561692
C        -2.26600803030292    2.99255567778508   13.40639145686295
H        -2.37003758629429    3.47566255498998   14.38234762592396
H        -3.10887495771266    2.32298655658627   13.24364077719625
H        -2.24965165514448    3.75422105011764   12.62043060717799
C         5.26571809304589    2.79725839218319   14.93494355008564
H         4.25766239782249    2.42433067935881   15.14293060000567
H         5.66061070580655    3.23478670246644   15.86044412846610
C         6.16992708331501    1.67351969637423   14.48919697871658
C         6.93244665080970    0.97528164593526   15.41176380975529
H         6.87229297346381    1.23126946735351   16.46004513244532
C         7.77716799692087   -0.04796113316024   15.01611662419830
H         8.35428427067955   -0.56660406719465   15.76499585261789
C         7.87871934343700   -0.38343918263641   13.66988976440492
C         7.10984351782165    0.31658870001703   12.73834288766367
H         7.19603823453846    0.06050518327659   11.69488868888208
C         6.26656158842362    1.32569725900939   13.14661468018227
H         5.68752436576381    1.85966138333295   12.40882389566714
C         9.49290229638369   -2.08983528470015   14.05389930287346
H        10.20119829327911   -1.44292177900218   14.58155985290964
H        10.04425649419973   -2.79550741338839   13.43471478939064
H         8.89171285912324   -2.64262643308356   14.78292873190678
Cl        3.75734583749683    8.12434666557168    9.88679861062945
N         4.30767891565571    5.39395707463281   12.60899067826818
N         5.16439814734327    3.83595580677416   13.94166089890295
O        -1.11916537169795    2.17511499271776   13.35370347476182
O         8.68438435380719   -1.35568950631865   13.16639041223491

