95
CSD_code = OQIDIC | q = 0 | S = 0 | Stoichiometry = C44H40Br2HgN4O4 | MND = 4
Br        4.12760085578258   13.49625615426942    1.99587168313064
C         3.27963150421722    9.02094999949668    2.04545850125372
C        -0.08107719595606    6.81484248915265    1.07427214440433
C         4.36397278214468    9.81762188358500    1.69543182388802
H         4.20224615001269   10.83625020223331    1.38361097647663
C         4.78139765133487    7.16117823600205    2.31952758513121
H         4.96311038190467    6.12129411200235    2.54383724931146
C        -1.66412904028753    4.64611441054223    1.85865668655130
C        -1.50044505688999    4.94641956731681    0.50984222583480
H        -1.98056830642246    4.35660921495189   -0.25466752595933
C         0.76363348210721    7.98714062844015    0.63650409271473
H         1.78543774831771    7.66152491476845    0.41419793362213
H         0.34007105932023    8.41477205328849   -0.28134718558860
C        -0.24976064799904    9.74047542874196    2.08952025913719
C        -1.91997343110446   11.49405512672327    3.36810967060608
H        -2.60289667676171   12.16832130187696    3.86236369058719
C         1.93947982036428    9.58148327635931    2.18580703424558
C        -0.56435165169186   11.63746853334115    3.57473355657013
H        -0.17452110662296   12.40875504104326    4.22067392542431
C        -0.24207961746334    6.50569881265586    2.41948291449217
H         0.23645573743037    7.11101883589226    3.17343443768161
C         5.87642953642226    7.98308491762363    2.03281044547228
C         0.28025643131462   10.74543072693986    2.92249870861467
C         3.50341630774077    7.67245516020965    2.33338567640838
H         2.67690776461357    7.02937996944851    2.59740757596001
C        -0.71892435867233    6.02436086380634    0.13113799856823
H        -0.60808965198545    6.25042153124013   -0.91989170171984
C        -1.61349314458374    9.60690146175196    1.87731068714097
H        -2.01125401787651    8.83278014815847    1.23978632871044
C        -1.02408209003452    5.44149622736160    2.81040585479627
H        -1.15924706952078    5.21391878255440    3.85542101360649
C        -2.43642193259777   10.49961447742059    2.53343132634000
H        -3.50566201324231   10.42789452311557    2.40222032407114
C         5.65067209437551    9.31363373606824    1.69541918634673
H         6.46427720611983    9.96965352105758    1.43252454783311
C        -3.08841616074834    2.78689814696709    1.43603810527428
H        -2.39003841649478    2.27076227081106    0.76946025643937
H        -3.81592303532701    3.34632245934520    0.83920627336033
H        -3.61279145502544    2.05232665256463    2.04492496962184
C         8.24319685647516    8.19557100532436    1.94053202797168
H         8.30606798229503    8.59612740982862    0.92435507491025
H         9.08944706942096    7.53491375897177    2.12089960138847
H         8.26448794847970    9.01879131229857    2.66164446593276
Hg        3.14552671826532   12.28848285283009    3.88707250044096
N         0.83097016229641    9.02337653522493    1.63437172356744
N         1.65090482766705   10.62276211582101    2.94471516749310
O        -2.41372457666872    3.62255375243434    2.34545835101905
O         7.09586309136895    7.39415231544762    2.10951673780750
Br        2.16437720060930   13.49719864377767    5.77704081557881
C         3.01104647286510    9.02098780557380    5.72967600996005
C         6.37171662102516    6.81461603551751    6.70068253559165
C         1.92676402599953    9.81774412117871    6.07974728370463
H         2.08847244413953   10.83669897906498    6.39061903618227
C         1.50929528008976    7.16129413707518    5.45499011876709
H         1.32758546819029    6.12149497577925    5.23029681882655
C         7.95495980432787    4.64599048402951    5.91619721607068
C         7.79112520280249    4.94614660154774    7.26503649928529
H         8.27117906723403    4.35622785505711    8.02951817247195
C         5.52716289416847    7.98701254269593    7.13862523835305
H         4.50534456150581    7.66152847256800    7.36109173190427
H         5.95094461490041    8.41447287304206    8.05645495856021
C         6.54051651194103    9.74033785356215    5.68544178910645
C         8.21040212578641   11.49428795443152    4.40676641035744
H         8.89321072186875   12.16849339427927    3.91224790534919
C         4.35125422684190    9.58134242473287    5.58920150592356
C         6.85474119944026   11.63782794191428    4.20071556005581
H         6.46478680450667   12.40866506784782    3.55429644827981
C         6.53271388253379    6.50547535799656    5.35547931688322
H         6.05421123021866    7.11082532494813    4.60151533519189
C         0.41432461738549    7.98311608153462    5.74209950084821
C         6.01036890862486   10.74544092941365    4.85271887352359
C         2.78726687600130    7.67257652887972    5.44140128451369
H         3.61379854381065    7.02956865362931    5.17726065552496
C         7.00954713700405    6.02403061987018    7.64377436829490
H         6.89863457139988    6.24994327727415    8.69482569175020
C         7.90432327925036    9.60678166153425    5.89725661966471
H         8.30227250418607    8.83300859273016    6.53509385329475
C         7.31482367283348    5.44134071921450    4.96451349269541
H         7.44997194616794    5.21380805580862    3.91948461449227
C         8.72707496589023   10.49947100997974    5.24086767954981
H         9.79632657573707   10.42798063312537    5.37207462926783
C         0.64009321375826    9.31356663222409    6.07994320805610
H        -0.17360426164621    9.96938023727079    6.34310172323895
C         9.37938236184040    2.78683002552982    6.33873758381232
H         8.68095255179547    2.27064121279962    7.00521733284715
H        10.10687297878792    3.34617936630508    6.93566178616679
H         9.90379785401176    2.05229823196490    5.72983587525029
C        -1.95257326950030    8.19528157337973    5.83411778106937
H        -2.01554230580376    8.59600698982303    6.85021930822433
H        -2.79868429132955    7.53439702982227    5.65388426084349
H        -1.97405544944435    9.01835816491693    5.11284356735474
N         5.45978132061060    9.02341256587809    6.14088867965332
N         4.63984901020019   10.62222330428475    4.82979180527004
O         8.70478637255425    3.62258574584012    5.42935814657209
O        -0.80509056098408    7.39408645308281    5.66520206494267

