95
CSD_code = OQIDOI | q = 0 | S = 0 | Stoichiometry = C44H40Cl2HgN4O4 | MND = 4
C         6.33881141964825    3.30203257718848    1.07934075387071
C         9.71158294548027    1.10154497624094    2.04062214045694
C         4.91512648143684    5.17342164533768    0.53471926483493
H         4.42877759846623    5.76653504385819   -0.22328290351503
C         5.88908798086067   -1.53334704991981    3.57353834982322
H         6.30274572992549   -2.29344407421177    4.21923000309151
C         4.76406831767733    5.46851270739721    1.88595233562977
C         9.93685216845888    2.45794916738722    2.28869606188326
H         9.11110069698577    3.11174353689848    2.52825590296198
C        11.21673409036479    2.96485953528988    2.27395146943339
H        11.39978082946291    4.01016763848965    2.47009695682226
C         6.18164365320334    0.36673830316644    2.08243964140772
C         4.53159655110298   -1.40332963647858    3.36944324876467
H         3.85395376024761   -2.08195251082256    3.86532130837439
C         6.72063569898379   -0.63280827186150    2.91614823121010
C        12.31132162661545    2.13054199690834    2.02475859587812
C         5.41344687405806    4.67006875969981    2.82889060034795
H         5.28781729840006    4.89423840467287    3.87580368051668
C         7.17706432593574    2.12954040173955    0.62897454553593
H         6.74048142974570    1.70356477822530   -0.28341081022797
H         8.19584328314982    2.45434925135036    0.39302313918186
C        10.79799872316570    0.28425463365556    1.74325407247532
H        10.63899426095471   -0.75326937375724    1.49191933278419
C         5.69235457255229    4.09610833223827    0.14520290578415
H         5.79296585712049    3.87371153554866   -0.90761742673244
C         8.37061403558263    0.54431056723690    2.17791746782660
C         4.00407437687742   -0.41361158954896    2.53475987192305
H         2.93370588118189   -0.35225986643965    2.40624828902650
C         4.81554858265728    0.48710978111725    1.87468418734876
H         4.40667571899932    1.25624254531394    1.23797662825942
C         6.19187984833973    3.60710739892486    2.42723792855174
H         6.67928560167341    2.99987513695219    3.17414641592602
C        12.08514530548702    0.78762604999332    1.73927128495743
H        12.90086750744783    0.11926596076510    1.51780412404212
C         3.33914159598361    7.33128222547517    1.48174974974738
H         4.03413841253590    7.84904520124624    0.81287284095695
H         2.81981822180090    8.06426182523297    2.09690064714816
H         2.60671124920394    6.77605373840083    0.88689143794924
C        14.67825548674666    1.90849928167146    1.96187449785569
H        14.69296711120652    1.11681344127522    2.71761495926427
H        15.52525837580393    2.57434674263685    2.11847112940757
H        14.74618626328559    1.46417235257100    0.96443005701840
Cl       10.53178649505338   -3.22621290689139    2.15950942535314
Hg        9.56406879897117   -2.08621881731829    3.88179343089738
N         7.25672634379944    1.09231281216654    1.62496728812338
N         8.08858219921942   -0.49674081594172    2.93925877334011
O         4.01802296366088    6.49050576541543    2.38298355108964
O        13.53224213203208    2.71905432989979    2.08914796744787
C        12.78876996019844    3.30159556000003    6.68400884520474
C         9.41630332758118    1.10054860465218    5.72309378902604
C        14.21244664307070    5.17298371375240    7.22870460113792
H        14.69902081604108    5.76591932925199    7.98669866689170
C        13.23919272357088   -1.53345844578827    4.18950074556829
H        12.82553133549482   -2.29353853382561    3.54379786050515
C        14.36319132509985    5.46836588631915    5.87750091648327
C         9.19123746993236    2.45680369860450    5.47408343062926
H        10.01711629329360    3.11020785687286    5.23393736992919
C         7.91145500039185    2.96394164201516    5.48861217891368
H         7.72847798774662    4.00913109086762    5.29181956719342
C        12.94638933267002    0.36640164033970    5.68089472630773
C        14.59668860617253   -1.40322827945700    4.39348486231644
H        15.27440518788232   -2.08176519394850    3.89758878696329
C        12.40754549570450   -0.63318444852787    4.84713630579455
C         6.81678187222714    2.12993214818393    5.73838425797722
C        13.71364850009444    4.67007190664429    4.93454376967420
H        13.83895245890521    4.89449328610005    3.88764666941521
C        11.95070463208947    2.12900726023262    7.13447115729640
H        12.38740975940975    1.70322228612473    8.04688422514400
H        10.93185939912597    2.45363714521787    7.37040356935878
C         8.32979754969040    0.28361557366184    6.02116026850998
H         8.48869121231819   -0.75371768305818    6.27335624334904
C        13.43537536233812    4.09554082178187    7.61815941778098
H        13.33500796586432    3.87290537809097    8.67095207433298
C        10.75735871310801    0.54340970607499    5.58580607724378
C        15.12407445357477   -0.41354038372498    5.22828102639484
H        16.19443635665301   -0.35202506228432    5.35679875368601
C        14.31249083703947    0.48697585691395    5.88851933336528
H        14.72136726615677    1.25613592238365    6.52519644488087
C        12.93538252842626    3.60695639800396    5.33614384836689
H        12.44766891337262    3.00001341527288    4.58919213963397
C         7.04271197266859    0.78716317534044    6.02474161311694
H         6.22676690681440    0.11920797440234    6.24664837737319
C        15.78822313627221    7.33112563971691    6.28171292106226
H        15.09332613433749    7.84863197620829    6.95090753013660
H        16.30715976292968    8.06433287075489    5.66650545447363
H        16.52098197084720    6.77600161154482    6.87625453670165
C         4.44959448020357    1.90879727160093    5.80073077338898
H         4.43506000069790    1.11664887596136    5.04546817152557
H         3.60303241687299    2.57496855271746    5.64304468700765
H         4.38063875102749    1.46512049306846    6.79841112547958
Cl        8.59695643185940   -3.22605111439100    5.60484387846392
N        11.87118443546973    1.09164510945317    6.13861203108520
N        11.03952540643191   -0.49749974682627    4.82433796920466
O        15.10925262502830    6.49036995023903    5.38052469396111
O         5.59601760166357    2.71880579508945    5.67381095363571

