67
CSD_code = OQIJAB | q = 1 | S = 0 | Stoichiometry = C23H36NNiO4P2(1+) | MND = 4
Ni        6.14171644552690    5.74785267415287    4.26291342658293
P         5.71418022519330    6.99377983619307    6.00997111785878
P         6.73448640315387    4.09572267922855    2.95473711778882
O         6.21876702325447    6.13870574785697    7.29460460931483
O         7.19179351005575    2.89484420212031    3.94607907286348
O         7.88800014829004    2.20682716427724    9.84864789420704
O         8.43127084075073    0.66062574467305    8.31814715218848
N         5.62327143461995    6.92579455252238    2.97146058244026
C         6.69963938699589    4.53053500061158    5.60544268466929
C         7.16624626744781    3.25348633627425    5.27746307058263
C         7.58690180301387    2.36370837406386    6.24838194051847
H         7.95140461571629    1.38455574352830    5.98095748695859
C         7.53890873757472    2.74057073029969    7.58672767285521
C         7.07586040374677    4.00042502332076    7.95042058019735
H         7.03363239777860    4.29592636186131    8.98548504445418
C         6.66755840607981    4.87666648648288    6.96019263971671
C         8.00260431973560    1.74939393249862    8.60135308636475
C         8.31208840022193    1.31884734696804   10.87749206259555
H         9.36965209216028    1.07793353897435   10.75634136497593
H         7.73508631906699    0.39324144345728   10.83947126824619
H         8.14226841168968    1.83890505560641   11.81621375573873
C         3.87457826025130    7.05324019310028    6.24228876921903
H         3.48308603608201    7.77457755534934    5.51742958346864
C         3.36391790473904    5.65707543397290    5.88292288098906
H         3.77406506524822    5.33867781931492    4.91065269584489
H         2.27820128298086    5.64184299410750    5.81864423236338
H         3.67246931852543    4.93399617858621    6.63713425731637
C         3.48859465159354    7.46220170046367    7.65672942815289
H         3.97443703795310    6.81635877000850    8.38513254908922
H         2.41196780597769    7.37283592543627    7.78600765101914
H         3.76972697149524    8.49220503883264    7.86302096903188
C         6.41263299639309    8.64378602845802    6.44177035659465
H         6.21050515631605    8.78765943571805    7.50932927103086
C         7.92046171704879    8.57203772356775    6.21444966233921
H         8.35863518518250    7.76038828339509    6.79335104124192
H         8.39733405531521    9.50195147487360    6.51517680152614
H         8.13631503343487    8.40162011336023    5.15901904948708
C         5.77241442362464    9.75260351782679    5.61878126911034
H         5.91247517013109    9.56752307269010    4.55441169769124
H         6.23640635847203   10.70669077355261    5.85967645944103
H         4.70699281824102    9.83580764445500    5.82023177043101
C         5.70272364386195    3.14036664923233    1.76385116296821
H         6.26784079892733    2.22791010528012    1.54147781042181
C         4.40396576716960    2.77295860359729    2.47685997776900
H         4.61067011963352    2.22735013753599    3.39632713956304
H         3.78349794097723    2.14620124846685    1.84067706623742
H         3.84031724639217    3.67286607738183    2.72538684705869
C         5.44086852025773    3.93546696159804    0.49276431289722
H         4.94250985758464    4.87529466121136    0.72721632902070
H         4.79421582928581    3.36700153228149   -0.17218965007765
H         6.36364834833559    4.15396413214124   -0.03973281970339
C         8.31976985832795    4.56869968551060    2.11475014196160
H         8.05926896609149    5.24986435521608    1.29771894275584
C         9.06640409212063    3.35667567824729    1.57574173258021
H         9.21794958917653    2.62208525690142    2.36384235448372
H        10.04154320338170    3.66051569624122    1.20066859921014
H         8.52250813373605    2.88536289230494    0.76061848785906
C         9.13384185437422    5.33070241328741    3.16163356660329
H         8.51642576233517    6.11369478933001    3.63182049527024
H        10.00462853991294    5.80355239028890    2.71291991856014
H         9.47704324991566    4.65238072087932    3.94193262646011
C         5.33123485064324    7.68933414192898    2.15563671647223
C         4.95685853817100    8.60750527334959    1.17341523863652
H         3.90458920829690    8.59646078082132    0.91764422994873
C         5.81969863076083    9.43917818122324    0.58993653050005
H         6.86651994829163    9.44922710919628    0.84548583085642
H         5.49440266093778   10.13465287451207   -0.16346761482492

