37
CSD_code = OQILEH | q = -1 | S = 0 | Stoichiometry = C12H16AuS8(1-) | MND = 4
Au       22.53574141181070   15.68812564273420   20.68140136393954
S        23.56624100303016   17.73089083642918   20.25970809454546
S        24.08843826294970   15.22953331332866   22.35184864490206
S        25.79742347004392   19.15838437756856   21.64756941552636
S        26.18643674773590   16.92137415542277   23.63617117869361
S        20.97679964021563   16.15089160118317   19.01799050488703
S        21.51084577638217   13.64214129449158   21.09880475764516
S        18.79223799374097   14.49551854492441   17.82244388518263
S        19.36552123509605   12.15955090917184   19.64523249949762
C        24.72657517239130   17.76438106295073   21.56022715645577
C        24.94324804744176   16.74893404268085   22.40628582941937
C        27.36029583361988   18.19443506242320   21.39939969350207
H        27.16443202946684   17.59560496747211   20.50509350071347
C        27.66529657402198   17.26953114477010   22.57358412004534
H        28.34102402848957   17.76778947067884   23.27346306689353
C        28.49212060100343   19.17374185541644   21.13655869838528
H        28.25881464495027   19.78505729561116   20.26859109708336
H        29.42037914498280   18.63550672636494   20.95187465873121
H        28.62555432826861   19.82845427231683   21.99461594455209
C        28.25371320998753   15.94695516378165   22.10697651961812
H        28.52432948898678   15.33569697699332   22.96432621343642
H        29.14045093954505   16.11608753498906   21.49696487817529
H        27.51960172077539   15.40120146881900   21.51682555243679
C        20.12925417564357   14.62868899521529   18.95919172904912
C        20.34078021850487   13.61244208094154   19.80559920620089
C        17.49232837891179   14.21139706453022   19.11199527401597
H        17.64144947360980   15.02794085792947   19.82455824722131
C        17.66482652784287   12.87490314531808   19.82717718852602
H        17.04179025154465   12.11453080539943   19.34931416400398
C        16.12819752102158   14.33321858210172   18.45357036294687
H        16.02525486398571   15.31242918932909   17.99308441124198
H        15.34004886455016   14.20491946914601   19.19373291494823
H        16.01781081392625   13.57505911933870   17.68173948899570
C        17.33719603886052   12.98555829828118   21.30826339283619
H        17.40103002500715   12.00756689846667   21.77877607234285
H        16.33273918229175   13.38317026274153   21.44973202237493
H        18.04957235936187   13.64708751073634   21.79810825102592

