37
CSD_code = OQILUX | q = 0 | S = 0 | Stoichiometry = C12H16NiS8 | MND = 4
C         9.50466238606071    2.81707035371479    2.14205708599831
C         8.16161767441243    2.84143155648230    1.84689173304826
C         8.04161667279566    1.87263492779741   12.07442537638713
H         8.91374677348322    2.50454805031463   12.22514312832221
H         8.34293194683686    0.83599423303318   12.20538815925038
H         7.29726010820524    2.12857766662447   12.82309673256204
C         5.30765411037507    0.95986359869289   11.33221628301671
H         4.49229657144738    0.36507291722548   10.92718711700097
H         4.91595649907673    1.93661967175427   11.60622937691108
H         5.68874048336653    0.46283940321436   12.21982456862924
C         7.49069537434510    2.09172189902471   10.67257861323856
H         7.12352887473363    3.11618605746136   10.56570894612135
C         6.40271287899617    1.10240522027506   10.28477122192319
H         6.84308555173118    0.12660171487854   10.06198528938879
C         8.21282532231610    2.03428321269486    7.94555040792937
C         6.87527112893799    1.95234462751197    7.63614764365231
C        10.02366907297058    2.73111052285557   -0.62926976225779
H         9.68623672005530    1.69172918034374   -0.66891919241894
C         8.83708678628064    3.67263568012422   -0.76476417238512
H         9.10174733416583    4.66733247702730   -0.39560501543767
C        11.11328025416575    2.97157135134788   -1.66441101685073
H        11.98875404942672    2.37634627879388   -1.41567753138360
H        11.40283678727058    4.01973364919805   -1.67320686026619
H        10.77135903401984    2.68417301198143   -2.65465461173326
C         8.29091739721412    3.76446907932294   -2.18249136210975
H         7.35948750275008    4.32575514643657   -2.17750836550821
H         8.09002112693802    2.77086750819959   -2.57613939719717
H         8.99642594735577    4.27361926750837   -2.83293826020513
Ni        8.18853649788671    2.41617754898400    4.89336280124913
S         8.93225183666088    1.91495028736769    9.53345500899068
S         5.55587307590045    1.67435130456690    8.74760888620617
S         9.35634181731048    2.25425837489087    6.68900421686770
S         6.37248156755610    2.15630383534294    6.01119573364063
S        10.00631614423309    2.64038999143264    3.77055602062037
S         7.01887981608474    2.60984797766410    3.10206051212487
S        10.82968908366572    2.97295270191721    1.01360214850336
S         7.43590579096959    3.06792971398933    0.27363853617084

