41
CSD_code = OQIROX | q = 0 | S = 0 | Stoichiometry = C16H16Cl2NiO6 | MND = 6
Ni        0.00134442173746    0.00112677461143   -0.00084822405179
O         1.10883679245624    0.52171088208555   -1.43218901137886
O        -0.98895646969180   -1.15733352725135   -1.11552355993473
O        -1.72021231040275    1.64306022834560   -0.58741891323602
C         0.04640867189088   -0.67928209002408   -3.20885306290968
C         1.00913737052119    0.23717853014477   -2.66443405092306
C         1.91389762758186    0.83411226014489   -3.59568858904422
C         1.86525013441753    0.55582198238444   -4.92883358362657
C         0.91162565134113   -0.34628139040657   -5.43115592666116
C         0.02097009065479   -0.95233168330578   -4.59231288706498
C        -0.87925885421286   -1.30778729038755   -2.33897655757433
C        -1.63981214493536    2.97066218589069   -0.10637972094212
Cl        0.88205501875502   -0.67790150027514   -7.13138654276460
H        -0.70942973833828    3.38486694239023   -0.49077667088727
H        -2.50845948852246    1.22138487406172   -0.22122544564435
H         2.64027150664395    1.52659812411849   -3.19930461368864
H         2.55649076243590    1.02466253081372   -5.61270249800192
H        -0.71388488344893   -1.64382013273639   -4.97620637571803
H        -1.57570783299965   -2.01657696906667   -2.81599547765531
H        -2.48200882392627    3.56635756918292   -0.47474653458357
H        -1.62222354481907    3.00812785365891    0.98761052972500
O        -1.10544279279697   -0.51928063275735    1.43120162661389
O         0.99212063862531    1.15978136264159    1.11301284249970
O         1.71462873537692   -1.64846752528280    0.58771844764108
C        -0.04190663893639    0.68207546116306    3.20702946330195
C        -1.00495873380553   -0.23449523525571    2.66334482907864
C        -1.90909139041414   -0.83128424435680    3.59529011578703
C        -1.85963347954829   -0.55272617884449    4.92835425552758
C        -0.90573899976843    0.34950397112228    5.42992174963926
C        -0.01562259778103    0.95541794503386    4.59040867779657
C         0.88320066160608    1.31046931435242    2.33648492329625
C         1.62629880189122   -2.97694256179105    0.11097508760359
Cl       -0.87514446371713    0.68148522714064    7.13006549662083
H         0.69397121587725   -3.38465165517603    0.49727218781708
H         2.50478401524649   -1.23239834813483    0.21954988490091
H        -2.63566165773432   -1.52390740905692    3.19950766157608
H        -2.55045342315706   -1.02143876039592    5.61273159132290
H         0.71947264593046    1.64698094443899    4.97371492408909
H         1.57990180858038    2.01939877745365    2.81292914666759
H         2.46541809368435   -3.57624810424175    0.48061025945122
H         1.60752360370348   -3.01762850242951   -0.98277545466204

