61
CSD_code = OQISOX | q = 0 | S = 0 | Stoichiometry = C32H12F10N4O2Zn | MND = 4
Zn       35.15164270724188    4.17180416068293    5.76854616330055
F        40.57878099528052    4.94698218527998    6.65137847684585
F        42.89318204439540    4.56456623206667    8.00428744389402
F        42.90547940426245    3.09170125461944   10.29803890683703
F        40.58069412811486    2.01329572560448   11.23161589231221
F        38.26492262748828    2.41000447334923    9.87708050184112
F        29.61476518652389    4.10270567982188    6.20481896923970
F        27.18041866977177    5.28067707036586    6.34382700101239
F        26.98077565337265    7.99881897922156    6.39465520176683
F        29.23802316212281    9.52776746952275    6.31520699765305
F        31.67296744064186    8.34054341402885    6.18745922198285
N        36.36790554573687    2.73469615104898    6.24233044768783
N        36.40849610554831    5.47761563674840    6.71899560419159
N        33.98583999225121    5.28877539160999    4.69057170741778
N        33.69830887123901    4.13594292926413    7.20870585494141
O        34.21302263946478    2.28283972349146    4.72734165904477
O        36.34156911725175    4.43922701069710    3.75671192021372
C        34.95591676473497    1.34458949743280    4.97366279678734
H        34.73838754410427    0.34075862495229    4.57466719706740
C        36.13622237391718    1.50334083885903    5.76806200391029
C        37.18357080486953    0.62639271691065    6.14859074753941
H        37.25675031438170   -0.41589164598705    5.90720150725166
C        38.06967976956917    1.38413123210719    6.86946833718299
H        38.99361259518653    1.05792796734436    7.30794735446732
C        37.53661340171559    2.70899745031840    6.91114434945037
C        38.09760290528413    3.86953268857884    7.48664845950293
C        37.56740666515145    5.14335340487139    7.39871915930671
C        38.10363228056124    6.33421763634226    8.00200452976124
H        38.98979882152687    6.38673382256074    8.60438073197026
C        37.26431679764104    7.35246193493085    7.66607624844139
H        37.34142435502987    8.38841450754252    7.93156935588125
C        36.23844072222526    6.76905760961540    6.87298449615079
H        35.39968778441208    7.27598904746876    6.42918755755937
C        39.36548755001151    3.68625777847816    8.23093127741663
C        40.56349650300345    4.23231451588303    7.77639764570078
C        41.75840056909740    4.03556566364666    8.46281062590799
C        41.76713339992477    3.28302233004361    9.63396589082700
C        40.57976755031035    2.73186374377643   10.10817158620588
C        39.39787813026402    2.93427826489341    9.40299485152378
C        35.63883314315570    5.11989711492339    3.02477926327274
H        35.97334119615684    5.37091809162637    2.00531552821524
C        34.35913728765669    5.60610568900518    3.44366635710390
C        33.33422696989507    6.34305756614205    2.79771182163307
H        33.36344901211380    6.72564436722938    1.79632211934650
C        32.31440226583400    6.45182576430463    3.70722011502667
H        31.36674284536298    6.93496056833240    3.56279128571937
C        32.74626438706595    5.77629859838525    4.88973444338040
C        32.03925240920898    5.56060494035405    6.09238614536270
C        32.48823634080016    4.80696407761825    7.16099786593418
C        31.80018706196346    4.59881544702580    8.40715644760102
H        30.84348320850047    5.00676171253862    8.67018841422935
C        32.60384731697625    3.80507396041348    9.16757368762594
H        32.42334539070319    3.43606822633238   10.15798008119122
C        33.75890557606133    3.54743281426902    8.37938163874908
H        34.61050246242186    2.95234036337677    8.65884474703538
C        30.70332361324992    6.19351116809449    6.19135701695134
C        29.53744072826316    5.43293835288724    6.23887587492617
C        28.28206624493896    6.03076681312559    6.30444938803685
C        28.17773231597966    7.41874590716742    6.32962778174078
C        29.33095528934884    8.19771123765414    6.28732809989822
C        30.57540304070025    7.58038410121413    6.21445319699399

