54
CSD_code = OQITAK | q = 0 | S = 0 | Stoichiometry = C26H11F10N3O3Zn | MND = 5
Zn        5.83384473128971   13.67055058277463   21.49377817062519
F         7.69829236266792   13.83587366476863   16.33002868339236
F         7.45916832832206   14.35255481508339   13.68208340204520
F         5.13571724358885   15.39161305162100   12.69857904713226
F         3.05285104731865   15.89130488384523   14.38693246690184
F         3.28775136316463   15.34563463468846   17.02863407039316
F         3.32181207474592   17.97734983552401   23.59359189358421
F         3.10102126255318   20.59616709065880   24.25785134050637
F         5.11459077505894   22.33087504349919   23.64862194073864
F         7.35020564568579   21.42294382909370   22.37757354013386
F         7.56802310697750   18.80008429598881   21.72861255658867
N         5.63936222420977   15.31183059619929   20.42149504726974
N         5.93388722348704   12.55994252867769   19.87218385584821
N         5.84708985740128   14.63077824664874   23.20181503636268
O         6.09648032472881   10.52747857688515   20.90555452732837
O         7.43615145463743   12.33561340376549   22.32057243884032
H         7.08616581603572   11.49686215813653   21.93633846940998
H         8.34598086039829   12.41366254325499   22.02425910758162
O         4.41054022479789   12.20694724805298   22.25940756275751
H         4.83970349052595   11.38880854348838   21.93837539420663
H         4.28180117371285   12.10350932654523   23.20596272447651
C         5.56346946575720   15.40262836498964   19.08384555708751
C         5.41986494482487   16.76976557820135   18.69648561910309
H         5.35247304146476   17.13967738498492   17.69216801011638
C         5.39411748763089   17.50224493405499   19.84459511890002
H         5.28456388340789   18.56563060207636   19.93207024242157
C         5.54016300535991   16.57912377515081   20.92485409316751
C         5.63387109831979   14.28973795684974   18.19412006425059
C         5.79811496057402   12.98297092668565   18.58232113355990
C         5.79009362462196   11.81692737273617   17.70607507902780
H         5.68851624820054   11.85386554221828   16.63810743123340
C         5.91122168196322   10.72851211188857   18.48204850641428
H         5.93888357103516    9.69377039232289   18.20285161526177
C         5.99424802737870   11.20692977226810   19.86672194806150
C         5.50059629953211   14.58037122845660   16.74925109575361
C         6.54797347888515   14.33190615413953   15.86407380019924
C         6.43723478872302   14.59987559142927   14.50376211259217
C         5.25344079591132   15.13115806932853   14.00024435857876
C         4.19239529448979   15.38735390092963   14.86434220841911
C         4.32492560752764   15.11135182114798   16.22104873878375
C         5.57015421489009   16.89145007227336   22.28537118203453
C         5.71767511535260   15.99518894272744   23.34282940838298
C         5.80953294744023   16.32369837345009   24.72687938106918
H         5.75623590536823   17.30979606845823   25.14562130846133
C         5.99132337493046   15.14364452116834   25.39991923159907
H         6.10297112183614   15.00140609587882   26.45661469939827
C         6.00797911955044   14.13433259361704   24.42117050310831
H         6.15501768889059   13.08138661731279   24.57704344683609
C         5.44837852502427   18.32650475461614   22.64207466715000
C         4.31846676224790   18.81221212528429   23.29504008482840
C         4.19510573707132   20.15592028872426   23.63526191823516
C         5.22174836599652   21.04332954380236   23.32455418306239
C         6.36163571599245   20.57828696919083   22.67480809052932
C         6.46246750848851   19.23155665444719   22.33997388625185

