61
CSD_code = OQOBOM | q = 0 | S = 0 | Stoichiometry = C28H26N3NiOPS | MND = 4
Ni        3.73721744618096    2.92779609828158    4.40625451406998
S         2.47904188278171   -1.22476615178255    4.56487279548983
P         2.95868765600971    4.11488914348880    2.73925292089085
O         4.63395142677696    4.39601328291472    4.96091795040839
N         3.89367398342598    0.61658300416262    5.83125767126074
N         2.88547924957471    1.34179995394278    3.89839403689933
N         4.34749291904097    1.89975113803508    5.86186350537998
C         5.65955368206013    3.58041001593167    6.98210414865748
C         1.19771422397762    4.57976507267552    2.81403884829528
C         3.10752816768483    3.28961528166777    1.11742425445200
C         3.75153315323326    5.72428405011644    2.45225073708946
C         4.61884363075675    5.95886169970336    1.39308338868424
C         3.52341133101050    6.72598169421087    3.39285575452660
C         0.67861473910709    5.65988753862266    2.10639398908986
C        -0.67197923160281    5.94847481934477    2.18325463493859
C         5.39047183925745    4.57638149748566    5.99896394305509
C         2.23518143379667    3.48059247115661    0.05383496079006
C         3.14727754112529    0.39185604883049    4.78450281698858
C         5.10437599021706    2.25859934493997    6.86852291257344
C         6.49175451640845    3.92365161008245    8.06301301605467
C         4.14209686905911    7.95403098169818    3.26264991020348
C        -1.50957276837286    5.16834541480119    2.96493576989779
C         0.35547216680412    3.80888732911427    3.60764009459462
C         5.23465496656265    7.19241246814292    1.26629874536326
C         6.78431663896347    6.14509166094877    7.21878885034987
C         7.04329893387454    5.17357373849500    8.18583392078381
C         4.99814269389541    8.18938216608836    2.19740837886924
C         4.18607534112396    2.41967478835157    0.97672091834100
C        -0.99469022165974    4.10022431663727    3.68110513304231
C         5.97790262061668    5.85264110836262    6.15174885257935
C         5.40869630404430    1.24675363089171    7.93933004264808
C         4.40140233009806    1.75952614976405   -0.21806832417079
C         2.45133312727729    2.81402619297561   -1.14016029084982
C         3.53219136106240    1.95879963421074   -1.27931533842319
C         3.15914658867672   -2.06598321909273    6.01933626792389
H         6.70954017005363    3.18671115478730    8.81954833475082
H         7.67879879083161    5.40516691865357    9.02748386567755
H         7.22136249582473    7.12895646227419    7.31199056033318
H         5.76362827345183    6.58508389169218    5.38713406537622
H         4.89136999655623    0.32073290989977    7.70698779505919
H         6.47924158104095    1.05579401343117    7.98502009351423
H         5.07500796145659    1.61181234494242    8.90863048971917
H         2.79313503181728   -1.57304442001278    6.91367652363699
H         2.81289063890916   -3.09356647726751    5.97579158942655
H         4.24212024224197   -2.02075786245130    5.97596504625369
H         2.30811972571933    1.05346125033288    3.11266826772266
H         2.86500605651212    6.52601274186156    4.22716756215558
H         3.96428558247287    8.72872090623419    3.99463153060079
H         5.48565082525375    9.14813203325406    2.09788026396298
H         5.90632600839703    7.37338384264240    0.43962978277603
H         4.81242077440273    5.17982084651286    0.66893998770575
H         1.33365715722234    6.27810938311895    1.50777965717151
H        -1.07360780394812    6.78686219105118    1.63269282082806
H        -2.56298339583192    5.39969064913001    3.02163565299110
H        -1.64483865183622    3.49924935678452    4.29963632699908
H         0.77859683377532    2.98877126879266    4.17669361506900
H         1.38618889304881    4.14010250192237    0.15926490473880
H         1.77081902875545    2.96161136125906   -1.96608901801209
H         3.69357661805294    1.44163267018888   -2.21356121433348
H         5.23964321665173    1.08659906591685   -0.32282808883967
H         4.84405141631601    2.26583701985901    1.82751985396513

