46
CSD_code = OQODOO | q = 0 | S = 0 | Stoichiometry = C20H17N2O6V | MND = 5
V         8.73085119467157    1.27932158964155    8.34865377199011
O         9.14175367982727    2.26667082421701    7.02403322836749
O         9.23110014983553   -0.32949296128741    9.17736641480887
O        12.87360092560182   -0.66125688708880   11.24695132957387
H        12.56138838390412    0.04384529506339   10.64003489363662
O         8.34945141560324    2.17064525631950    9.52969502297022
O         7.46824412158732    0.48967044664699    7.71748108015383
O         8.23144169535549    4.03528090094051    5.29935400388495
N        10.72811720187573    1.53492235110439    8.79193974751703
N        11.21894461070366    0.61253201837322    9.63108262719913
C         9.81788270554140    3.36759541482184    6.87753136300196
C         9.38115081739786    4.35338627377093    5.95111471626118
C        10.11434980440360    5.51297641784575    5.79270831746540
H         9.79334582616288    6.27546966342814    5.10102303348982
C        11.28394882364321    5.71817351858560    6.52799118312349
H        11.83738293975884    6.63270146836557    6.38148797647451
C        11.72663727580700    4.77885865154168    7.42337743907476
H        12.62875669590096    4.94087408174017    7.99299204455845
C        10.99873118826521    3.59299620396317    7.62134438645639
C        11.43543970477619    2.58355757813211    8.53144792536313
H        12.40102936882196    2.70208892564683    9.02706215790085
C        10.33265557279659   -0.34305549721237    9.82701353351985
C        10.62275438806599   -1.43141796611163   10.76486831829168
C        11.87970398554699   -1.54430012491976   11.42990846434484
C        12.08889672116316   -2.60226586690700   12.28707160419672
H        13.04540416864458   -2.68053687222180   12.78058932845330
C        11.09602569425643   -3.56379168435345   12.53313971457338
C        11.30216102710424   -4.64962015095603   13.41184092285557
H        12.25854587990872   -4.74078582845414   13.90573599138933
C        10.31302564425832   -5.56511422139903   13.63448850449393
H        10.47887885389387   -6.39233117593743   14.30918812999646
C         9.06803472376715   -5.44338741150885   12.99286470178119
H         8.29974340113972   -6.17759258675602   13.18540122012890
C         8.83519191801203   -4.40642677909995   12.13574219837256
H         7.88148715704681   -4.30385385385191   11.63827334662702
C         9.83708198431299   -3.44369482540629   11.88153989085363
C         9.63780079708217   -2.36909288152985   11.00459940131262
H         8.68771477603603   -2.25738115347566   10.50005448873524
C         6.30229466431161   -0.20919202063438    7.68865164201577
H         6.43319776325385   -1.14262268703323    8.26229806466500
H         6.03052729410587   -0.46825084781788    6.65479634836977
H         5.49113518494757    0.37786561091010    8.14540673528880
C         7.68613476209407    4.98149514721809    4.41212040500069
H         7.45047484469071    5.91999723234040    4.92369590916525
H         6.76732431737142    4.53603296026305    4.03463289285050
H         8.36215594674495    5.18240645308284    3.57430557944592

