94
CSD_code = OQOGOR | q = 1 | S = 0 | Stoichiometry = C49H37CuN3O2P2(1+) | MND = 4
C         5.07228189472786    3.70837888288969    4.53586765089174
H         4.84490984317494    4.08099813450334    3.54577522420425
C         4.07469496063881    3.41966365092546    5.45339239753372
H         3.03861470537932    3.56107667109704    5.19176083914708
C         4.43633741146814    2.94189179399290    6.70848381161785
H         3.68262944382632    2.70668691469423    7.44388680032088
C         5.77715705193199    2.77367372241650    7.00245862822404
H         6.10798504242386    2.41478611554495    7.96376836244777
C         6.71011363373614    3.08657823456979    6.01566932882696
C         8.13141963256095    2.97639852544757    6.20422329228807
C        10.05933499316306    2.54823270314400    6.95906670339810
C        11.08932003389110    2.03704470641285    7.82571002456735
C        12.43001642447847    2.20971703691066    7.47303878388228
H        12.66565758194592    2.73497920409120    6.56137434292317
C        13.42063233120239    1.70766553372041    8.29277392200056
H        14.45765374687229    1.83788591678686    8.02458985079408
C        13.08638469379358    1.03526696569011    9.45976365311469
H        13.86447363006999    0.64318858138444   10.09653350444373
C        11.75600041224999    0.86388702565227    9.81162890830950
H        11.50009044990496    0.33961860338398   10.71944807630762
C        10.75501572546852    1.36152824644698    9.00067769270954
H         9.71686848088048    1.23006504566395    9.26608278847949
C         9.93612404231151    2.71898080578101    1.28424393895568
C        10.86806639598284    2.48647961797783    2.29158580685430
H        10.75591417461920    2.98776085099293    3.24481393809294
C        11.92034832345384    1.61618299918109    2.07135181343234
H        12.64447400400674    1.43641209752049    2.85201309123937
C        12.04015684202313    0.97153662018668    0.85066406124330
H        12.85916655810485    0.28960367055097    0.67888580924447
C        11.10690753268846    1.19459655494129   -0.15016159830585
H        11.20071194950626    0.68635680727955   -1.09816931842051
C        10.05349769970309    2.06521924262867    0.06163789634504
H         9.32151127524516    2.23673562400815   -0.71518744613205
C         7.20178394125371    3.25875073365017    0.67678878735184
C         6.35923073654675    2.35604329744362    1.31812428605143
H         6.56464187497296    2.09101140930861    2.34842852153039
C         5.28068265854474    1.81326828260510    0.64570720638796
H         4.62961356262356    1.10937542246019    1.14285674048456
C         5.03594026172713    2.17522366649396   -0.66988905894253
H         4.19426187398822    1.75281045190478   -1.19721789478564
C         5.86818994283540    3.08042085678792   -1.30829652677310
H         5.67398306405374    3.36158644727259   -2.33268737754950
C         6.95113283097926    3.62512099067485   -0.64069619324527
H         7.59851087559492    4.33410560909306   -1.13878843450385
C         9.09561264593962    5.36907059407183    0.71416615473729
C        10.26487686638758    5.55228738407592   -0.00524945968236
H        10.96811748209266    4.73842933814260   -0.10491764687382
C        10.51915759290311    6.78285602258045   -0.58979937104752
H        11.42340305243837    6.92854302050307   -1.15981596498803
C         9.62258146388028    7.82687112435612   -0.43965997439129
H         9.83088518980283    8.78425179179049   -0.89156085855549
C         8.45626699028841    7.66574199700334    0.29387604195933
H         7.77198895539910    8.48986551054506    0.42945934931713
C         8.19927037075559    6.43464026655788    0.86630612254393
C         6.20133259397962    7.04809520957686    2.04725175978019
C         5.27924228663987    7.61871002684143    1.18929025099822
H         5.30013387926590    7.38235734486221    0.13594508309970
C         4.33237418918166    8.48778315044213    1.71116219866203
H         3.60999767491353    8.94406684744579    1.05235361327994
C         4.30637995574503    8.76999760419583    3.06724805914713
H         3.56517350922165    9.44945203341191    3.45924813581267
C         5.22688627436485    8.19224121265571    3.92724570648191
H         5.20709770676619    8.42038617742074    4.98308088117864
C         6.18689326534660    7.33104171120519    3.41711890652814
C         7.26838865494449    6.95711320727387    6.03911869805623
C         6.08396719629973    6.54918282426291    6.65315626431243
H         5.31947970147963    6.06000595782438    6.06179217534616
C         5.88455628643272    6.77960138031973    8.00065697186291
H         4.96066208259899    6.47284096751685    8.46899342386388
C         6.87137473867640    7.40228470516192    8.74991505447175
H         6.71544833595336    7.58223081016488    9.80265686096749
C         8.05822010245320    7.78925437939924    8.14909763586985
H         8.82768811863445    8.27050431037910    8.73419971154927
C         8.26389814257266    7.56094241801987    6.79974791724493
H         9.19275145984131    7.85631832178094    6.33158624327579
C         8.93901846872038    7.49611963103079    3.76016992487785
C         8.82778317111203    8.87366667049396    3.59368669342462
H         7.90356501983780    9.37464703020198    3.84832700136150
C         9.90149396273793    9.59266854770438    3.10291985807928
H         9.81642365653851   10.66115420479218    2.97331165884813
C        11.08200689410228    8.94515192580486    2.77264047542295
H        11.91280451755565    9.51092702892239    2.37978765276614
C        11.19837998613340    7.57607860490032    2.94800392891714
H        12.11886416799086    7.07316426161983    2.69390145437888
C        10.12926384480149    6.85101303522381    3.44153552797580
H        10.20290598579584    5.77759671107882    3.58054292398155
N         6.35711052386285    3.54192076073150    4.80477809984209
N         9.00843149085760    3.43920273140079    5.34991828875854
N        10.22647572446003    3.16909317398137    5.82383771444412
O         7.13381783695648    6.11101345094329    1.65850829891773
O         8.74105172660400    2.40509276423955    7.25110872146510
P         7.53207146146545    6.48004832291485    4.30737616939952
P         8.59896359415203    3.89590682161899    1.64939561625828
Cu        8.05341865631874    4.29157239815093    3.79099741097341

