98
CSD_code = OQOGIL | q = 1 | S = 0 | Stoichiometry = C50H41CuN3OP2(1+) | MND = 4
C         4.40658838136486   15.41787066244949    1.88890460323387
H         5.29235559160762   15.97916541880686    1.63154051919904
C         1.55328226078147   12.19804179143819    6.57742640109659
H         1.57985637659866   12.91071925376355    7.38861445288625
C         3.15905351287635   16.01680093279861    1.81975104202010
H         3.07229080797517   17.04568003083319    1.50561334192591
C         5.12944996761676   10.83670761027626   -1.08935455303316
H         4.61903671289911   11.68515843451363   -1.51973234097067
C         1.78760384285666   10.31475126026589   -0.31417611534907
H         1.20452900823044   10.71082531561992   -1.13207170746476
C         2.87155565040420    8.45912214309422    0.75835664565349
H         3.13547780726900    7.41246768856106    0.77585206210138
C         5.80923845380186   13.36001252494065    7.90341837984152
H         5.74771544509329   13.90581117998051    8.83199044900597
C         0.69224889269391   11.11227675412361    6.63204311355050
H         0.04736927613224   10.97693822652716    7.48687097821291
C         5.82458975710387    8.54213290718414   -1.21555554396211
H         5.85575616757051    7.60290729311621   -1.74715563604041
C         2.02131572011408   15.30093105305881    2.16023459161564
H         1.05179632449730   15.77362940319361    2.11183127667093
C        -0.72593357709135    4.98979633223066    8.28015729491696
H        -1.31770578317044    4.59842753487149    7.45629888831758
H        -1.38445865104624    5.47517886070532    8.99573558894511
H        -0.25195835780132    4.14428828096433    8.77982075752114
C         5.17396389087216    9.63047181171369   -1.77143548478615
H         4.69901121789763    9.54012683314796   -2.73633189261852
C        10.14889607897703   12.30644909052458    0.63823397611436
H        10.52262662111891   12.54684344857246   -0.34573236493094
C        10.77906869146330   12.81643835245044    1.76158927640940
H        11.64227619445543   13.45490929857745    1.65164060683061
C         2.11734752399240    8.96996534707863   -0.28645610810554
H         1.79061580458691    8.31942907480865   -1.08333811728116
C         2.38145281837270   12.36777331397294    5.48482167404932
H         3.05539044596607   13.21491854111767    5.43234940148280
C         2.12240334738996   13.98174644023762    2.56216271107143
H         1.23805167943868   13.42306138608909    2.83769459518184
C         0.72814410603057    7.01495968983442    8.56180544548671
H         0.26594244074253    7.18170665381914    9.52339227073962
C        10.30270297767285   12.50909712604145    3.02725870083828
H        10.79514196245369   12.90720309505967    3.90212176977076
C         7.62655703739362    6.34121584595590    3.76479213368803
H         7.03207496176337    5.63822368336485    4.32922096863568
C         9.66860969096178    6.89765205427508    2.62699032611781
H        10.66280008455434    6.62589146461192    2.30539105717226
C         6.54476808040642   13.86036330192742    6.83480213248737
H         7.06700526773247   14.79983457489676    6.91331827713836
C         1.48799424444933   10.36304662414264    4.49299288477040
H         1.46966944134379    9.64378248335894    3.68635008255883
C         6.59907532590069   13.13015640561206    5.65997698067432
H         7.15969039604984   13.48177517033203    4.80491668996653
C         3.29464588912968    9.29445009742713    1.77354638460223
H         3.89469508267551    8.91245543253868    2.59079172546275
C         5.73425734384933   10.94885724103123    0.14638414725921
H         5.69632216794214   11.88248953305992    0.69493193774116
C         4.51417887662882   14.09934236276833    2.29219580081788
H         5.48325119143396   13.61781024926445    2.36524101532031
C         9.16492920988357    8.14804889047602    2.31644901510221
H         9.76148930840886    8.85306856074755    1.75472138368388
C         0.92883041291955    5.72915787808459    6.54732270887536
H         0.62089042000733    4.89209908285011    5.93870631152860
C         2.20390716757065   11.15844155928797    0.70084715146567
H         1.95455248539388   12.20931131999003    0.66960313004503
C         5.15740792481648   12.14975631699478    7.75621846563393
H         4.57163669695475   11.71744100399946    8.55141890401296
C         1.91109654426470    6.58021917116995    6.09057152812852
H         2.38150312235166    6.43129110000959    5.13181465896115
C         8.90207252096319    5.99491938258349    3.34721363253614
H         9.30179475226364    5.02105667844758    3.58612554457415
C         6.44000169078467    8.65080378130190    0.01968977362703
H         6.94682421596850    7.79983223806856    0.45157347056470
C         0.65768539896158   10.20156017614417    5.58891402507903
H        -0.01265973205081    9.35585401050428    5.63111920157355
C         9.19596202216748   11.69367631613910    3.16459055686033
H         8.80665301853484   11.44205275473571    4.14434095324691
C         9.04243593879814   11.48463603836732    0.76902023397623
H         8.55260275129388   11.08554492377231   -0.10784700217182
C         1.70976045459290    7.87582430482828    8.11907989546767
H         2.01691866770316    8.71542395450717    8.72414956476518
C         0.32205596403157    5.93115106177628    7.78643514646982
C         7.11669576576506    7.59061961789965    3.46313853353849
H         6.12726669846779    7.87872805227584    3.79231964040619
C         2.30991481668578    7.66452289078170    6.87658109889083
C         2.34724795107229   11.45532512009392    4.42964662543808
C         8.56549290407859   11.17224895272916    2.03656700483447
C         5.26809807303306   11.48132151749590    6.53900509953467
C         6.40449454082327    9.86058581941608    0.70170351587449
C         3.37351171097811   13.37318448629530    2.61954694732127
C         3.31359174607312    8.56534698652227    6.38398030456302
C         4.60285270483575   10.23418328387690    6.27515394720009
C         7.88305864668027    8.49464151494412    2.73184123453536
C         2.95074785636501   10.64538718797890    1.75356013551334
N         5.97841241176902   11.96833658356609    5.50863995177490
N         3.93297740751031    8.49556883233403    5.23635848703708
N         4.74739560532988    9.55130262418509    5.17116899048666
O         3.71327041810842    9.65058837367946    7.09276912783295
P         3.60020017069823   11.64365383847896    3.12536541404747
P         7.12918965351901   10.10274759050030    2.35104698496723
Cu        5.65954548914256   10.94394930082195    3.79959520787088

