65
CSD_code = OQOJAG | q = 0 | S = 0 | Stoichiometry = C18H38Cl2N4O2Pd | MND = 4
Pd        4.63155170348320    6.80145573082941    7.69204234353793
Cl        2.76781853435309    5.97063946863050    8.73337587289744
O         1.58045115196057   11.43974840663810    4.07486187479779
N         2.00565375367114   10.31120338068088    4.50296830520737
N         3.62737060641194    6.62629189902190    5.89954689457207
H         4.12731170787729    6.02797983493170    5.23713907048537
H         2.72907212375995    6.18563895351896    6.13012626118972
C         2.24509604746043    9.28356769784612    3.49138551845422
C         2.44937568885023    7.90340191564806    4.12617044202113
H         1.48395835830977    7.51855666069774    4.46749361262946
H         2.82815958438348    7.22778597214839    3.35574211869955
C         3.40252984953395    7.95648607091555    5.31515341340630
H         4.38467962275769    8.33479298268953    5.00947097405308
C         2.78663366306047    8.87559421805964    6.36941207476101
H         1.82997322470293    8.44945681934149    6.68844765513747
H         3.45380945876020    8.93026294478306    7.25435199210580
C         2.57304234782148   10.30018633072898    5.85104426489120
C         1.00512785370809    9.24264417744879    2.58933507467039
H         0.12242360169908    8.98465853608302    3.17011694484174
H         1.13815597486271    8.50780128372669    1.80042662782508
H         0.84587722721474   10.22137787555160    2.14659526934990
C         3.46066678781784    9.69176551633590    2.64268053576124
H         3.32362542713932   10.71570327667140    2.30382875070320
H         3.54494685628748    9.04419681216314    1.77379562297383
H         4.38531238512943    9.63655432519532    3.20975892004883
C         1.57094532990027   11.02015267662312    6.76232476415395
H         1.42590803113939   12.03810266122084    6.41284155920544
H         1.93977725244267   11.03789209818689    7.78377182180098
H         0.60905174620066   10.51281707742753    6.74256439556239
C         3.89693052659608   11.08305971896116    5.85030632379581
H         3.75787069812499   12.01921111914214    5.31513666684423
H         4.69726781479879   10.52210628166516    5.37636626061273
H         4.19512173872855   11.30468191790714    6.87166726994874
Cl        6.49468533503984    7.63331113345000    6.65065773137014
O         7.67731026809101    2.15660365126229   11.30117335294254
N         7.25351470239441    3.28641731435840   10.87504839199643
N         5.63601115772485    6.97574255656966    9.48474311711170
H         5.13685986284569    7.57354974481103   10.14818573126030
H         6.53462246410652    7.41589593701941    9.25447142572746
C         7.01532707866067    4.31262019394663   11.88839884030951
C         6.81298247816802    5.69421899152204   11.25603058352315
H         7.77893274777137    6.07832524531496   10.91538934032099
H         6.43512531948098    6.36899141559165   12.02764940203071
C         5.85972425605418    5.64437534682695   10.06698642847522
H         4.87721716440235    5.26654233652562   10.37211157883212
C         6.47462654074843    4.72634874709232    9.01117792538796
H         7.43194341006988    5.15174538579979    8.69312872454590
H         5.80757452085314    4.67412606967560    8.12597799279542
C         6.68610213618096    3.30054247179895    9.52703692458480
C         8.25522134420660    4.35022064046672   12.79069123460562
H         9.13838321412115    4.60793236315318   12.21048567722032
H         8.12313951922016    5.08387001379701   13.58086635568952
H         8.41300114561549    3.37048574251453   13.23174589466583
C         5.79910213895025    3.90453808716308   12.73622437858169
H         5.93482630528860    2.87987669789304   13.07341965389065
H         5.71546846607071    4.55078328039279   13.60615574322851
H         4.87461597644802    3.96179828223309   12.16909343386065
C         7.68706062085526    2.58067078134706    8.61442959847185
H         7.83057504126647    1.56187947403809    8.96208183076539
H         7.31812904523825    2.56531002003389    7.59297634431801
H         8.64972381246782    3.08650841195162    8.63501374157417
C         5.36102492702722    2.51966488091025    9.52639252027981
H         5.49855645935987    1.58250325715939   10.06018408522793
H         4.56142070197745    3.08111341335817   10.00098019451895
H         5.06269516042323    2.30001347058526    8.50464232498947

