43
CSD_code = OQOLAI | q = 0 | S = 0 | Stoichiometry = C16H16Br2MoN2O6 | MND = 6
C        -3.33656128543023   15.35959756716976    1.34788945281659
C        -2.05140659679651   14.96245006597692    1.02382406101965
C        -0.98243030482084   15.56926170344198    1.67680954396304
C        -1.24332311716925   16.54837178373434    2.62671877688639
C        -2.56595207267807   16.88968455430335    2.89422315117896
C        -2.96188392339940   17.90693073027323    3.87805883468727
C        -2.05487979798788   18.63927837270411    4.63856339561183
C        -2.53983397323787   19.57419083554674    5.54398563775674
C        -3.91586156645507   19.74751406776837    5.66134018766770
C        -4.74954149444119   18.98149713796830    4.86596277757044
C         0.41369451640311   15.14202170721653    1.33319727163725
C         2.69753143167594   15.49485843667799    1.78526115191504
C         3.12555688666593   14.29252774757043    2.61258061942497
C        -1.62901062302383   20.39927755638005    6.40392530037572
C         0.61995035570610   20.89795528750733    6.89383388341682
C         0.89834669849065   20.20870194502489    8.22052810734975
N        -3.58777389532492   16.29462217541115    2.25636229067124
N        -4.28766531829759   18.08749620774544    3.99981401720393
O        -6.98526423299833   17.65566374939531    3.46072716016963
O        -6.24898847137445   15.77174040766489    1.62536928763682
O         1.32302006869638   15.82650961811597    2.01951328833905
O         0.65479804864671   14.28785446720591    0.52216124926543
O        -2.03359515968451   21.17362249081498    7.23006585698566
O        -0.34908077735502   20.17436694860468    6.12487969783230
Br       -5.25975489995096   15.26173531779872    4.58187891258707
Br       -5.11401420941904   18.67653783636312    1.12833651196584
Mo       -5.75006694881893   16.86858668557907    2.73183880716426
H        -4.20602082662409   14.92002161667827    0.87051526012320
H        -1.86727689393328   14.20009685518330    0.28370948254538
H        -0.42440437670473   17.02462312655457    3.13789332037060
H        -0.99253712729272   18.49669393806527    4.53965371381067
H        -4.30990848459287   20.46729080429485    6.36095015725973
H        -5.82915919605116   19.07737638652315    4.91432334198103
H         2.83344940447828   15.29072269974602    0.71883186070690
H         3.25355708422375   16.39028843351617    2.06880453695409
H         2.95682518674802   14.47935373269740    3.67016684426637
H         4.18189973099425   14.10157047450102    2.45060290165383
H         2.56121622389146   13.41295164945905    2.31377135120651
H         1.51184611284904   20.92536028027776    6.26549017978238
H         0.24883221800564   21.91319144794366    7.06290613419819
H         1.68021171790117   20.74594303593298    8.74878193079206
H         0.00151655247909   20.20250708799466    8.83458348877721
H         1.22144333600707   19.18395302666853    8.05516626247179

