43
CSD_code = OQOLEM | q = 0 | S = 0 | Stoichiometry = C16H16Br2MoN2O6 | MND = 6
Mo        7.01375440353367    2.61748467218871    1.10788766123177
Br        6.55530615985072    4.81537118971701    2.20446214410144
Br        6.31062519153575    0.41044503468130    0.17078861575633
O         8.06631836352580    2.04441171239796    2.22205613720878
O         7.74779292036529    3.19400239242683   -0.23414453580433
O         4.04408636606241    0.22389335444689    6.71951208505700
O         6.19426476098800    0.36721641475355    6.09314987534874
O         4.80013781420606    4.90992066063571   -3.56817472489448
O         2.55477928212339    4.89757134166540   -3.46350594435356
N         5.29424324740793    2.06221312489273    2.51998370944309
N         4.98021521713370    3.15290520374001    0.18963554279860
C         5.56910220091443    1.51174263844409    3.69236539041246
C         4.57669848083044    1.15467090900932    4.59845127797964
C         3.24767608320434    1.38815332410083    4.25517822241521
C         2.96292169623485    1.96182592359175    3.03094031184303
C         4.01459458912045    2.29072111597280    2.17562965447659
C         3.83677009812100    2.90254882775180    0.85309472191718
C         2.59464324592593    3.21076259035913    0.29963974677701
C         2.53670246357394    3.78655637187156   -0.95596990472141
C         3.72656173384317    4.04308654707780   -1.63044746984810
C         4.92689312025122    3.70609353569690   -1.01110829864269
C         4.89371587768747    0.53112110445006    5.92246550546928
C         6.61638503721701   -0.22529698610502    7.32817329983665
C         8.12773498831119   -0.33881091527448    7.30498349703257
C         3.77450713505052    4.66476636281626   -2.99135384375870
C         2.45280373530508    5.47391555744842   -4.77241214877958
C         1.18967871275004    4.95743266597026   -5.43603895476096
H         6.61844862655783    1.35026173933405    3.91628467283545
H         2.46883431955769    1.11608461935841    4.95186548485230
H         1.94126446017259    2.15044043718127    2.74767477679625
H         1.68598918614205    3.00358786267136    0.83932318897922
H         1.59130686315483    4.03568256845721   -1.41155112679130
H         5.87214024281409    3.89336255063169   -1.51307726735875
H         6.27103408019389    0.40622464634691    8.15403735087445
H         6.13845632809287   -1.20620968906958    7.42588975239422
H         8.47282621069422   -0.78780251722661    8.23147260769695
H         8.57634701529988    0.64487518313759    7.19769980399773
H         8.44477565635887   -0.95769139939606    6.47014263276418
H         3.34725581339139    5.20731563118945   -5.34407941871788
H         2.42120586558945    6.56250332245081   -4.65838907273203
H         1.09037013379161    5.40561787360116   -6.41999435770524
H         0.31810639761456    5.21532716420715   -4.84036793178257
H         1.23322587552164    3.87669533241627   -5.54317266964322

