68
CSD_code = OQOZAW | q = 0 | S = 0 | Stoichiometry = C23H38ClIrO3P2 | MND = 6
Ir        8.78431486985562    1.57727267291120    7.32891744991317
Cl        7.61218980049810    2.44573578265794    5.38264996597152
P         9.19322157269806   -0.56586308583698    6.61782048829339
P         8.46739293499803    3.37293667678588    8.87250023395389
O        10.07505723630391   -1.22345488663294    7.81840766865085
O         8.85911120216776    2.67094847208346   10.28943905335090
O        10.93233663503474    2.51499806930384    5.43049025518484
C         9.57131888450952    0.77307134133235    9.01963885011944
C        10.07282245464253   -0.52378305686154    9.01441816867480
C        10.54319624837372   -1.12470093194111   10.17119125048334
H        10.93019082300188   -2.13085193278128   10.13462694351971
C        10.48471752521854   -0.42029574894621   11.36317198270076
H        10.84928359742813   -0.87758053901537   12.26952198242712
C         9.93921910296720    0.85185837441031   11.41085504228390
H         9.86188678016474    1.39071359373854   12.34211054979023
C         9.47229174174350    1.43078891048224   10.23987156827809
C         7.43361094756299   -1.02545163492895    7.01351032708206
C         7.16698789533361    0.27164232387301    7.83385814070400
H         7.07243042712147    0.01658234624087    8.89442955744065
H         6.20653427184716    0.68223536778304    7.51663627108358
C         7.26105706696421   -2.30206529423777    7.82721717957255
H         6.23110526239790   -2.37075183387612    8.17628264468149
H         7.91509703282632   -2.30448544679047    8.69777138837330
H         7.47860987043327   -3.18582146166856    7.22952376969512
C         6.55687144907644   -1.04463202065962    5.76760335433680
H         5.50793873320862   -1.07975844988919    6.06150551672546
H         6.75935075261908   -1.91475328549529    5.14476397198318
H         6.71506260014157   -0.13864276463998    5.18504673550264
C        10.02513330454429   -1.40508168197087    5.16670457400370
C        11.50771373682130   -1.04419371075520    5.25730854881282
H        12.04835640713921   -1.48289212822219    4.41991026580772
H        11.94332632671461   -1.41760975322523    6.18171089521032
H        11.64119801019847    0.03547687140337    5.22027843432295
C         9.83160550038212   -2.91408627162425    5.26987326100958
H        10.39732575026186   -3.41468581320342    4.48493247250178
H         8.78349761968564   -3.18195186698110    5.15612885317349
H        10.18428853941705   -3.27579596512031    6.23377762894904
C         9.43447549402235   -0.83836260295764    3.87943432640066
H        10.04697662437811   -1.13000091375000    3.02740974422220
H         9.40096711618371    0.24970199159112    3.92096023771161
H         8.42419819778828   -1.20000233624296    3.71041541791171
C         6.79891689271492    4.12112480719566    9.33835348253502
C         5.80403927440572    2.97341324994980    9.16377240005700
H         4.80663894501379    3.28963368155986    9.46606101167764
H         6.09048387424694    2.11668037023151    9.77121160222946
H         5.76460938976844    2.67568218745384    8.11975869615255
C         6.44379130238670    5.21676284116577    8.33811040016831
H         5.38508772115869    5.45951397723225    8.41950282066820
H         6.63573403092285    4.87109440397197    7.32309007761098
H         7.00785653807893    6.12873770051134    8.51537327166824
C         6.72422824093475    4.61174921852517   10.78265049343676
H         5.67962737595656    4.77016228337148   11.04826548577164
H         7.24756348146109    5.54944817583265   10.93139817548827
H         7.13600887729355    3.86795151916113   11.46033625518864
C         9.79950134137992    4.72967743836574    8.79669483590224
C        11.14459073196855    4.01616194307732    8.96316207565024
H        11.95787513938492    4.72731890570133    8.82637091939743
H        11.26659677569516    3.21793840196090    8.23229061847639
H        11.23489763302247    3.58585420490379    9.95870464867184
C         9.67745596911613    5.74990713406592    9.92555188181282
H        10.57672336444565    6.36500234793658    9.95044928396309
H         9.58451916050450    5.24783372151322   10.88599952319411
H         8.83093357248599    6.41458368955590    9.78037121474905
C         9.74385710097612    5.41717866909403    7.43540110522807
H        10.66020806623015    5.97901210147637    7.26074045275429
H         8.90797876542177    6.10726030601528    7.36963706295674
H         9.63515911852824    4.68503729069185    6.63721559949016
C        10.23684696981991    2.36287205313183    6.33040163428835

