89
CSD_code = OQUBEJ | q = 0 | S = 0 | Stoichiometry = C33H49MnN2O2P2 | MND = 6
Mn        6.12363399316777   10.91306746998783    2.90067321134945
P         6.62495475325126    8.70300757151583    3.42245401899985
P         6.30039911833129   13.19652612893768    2.67195889580886
O         5.83100291083091   10.37731115761449    0.04604229072010
O         3.21268910183574   10.63982643786703    3.00772464156591
N         8.16179462620844   10.95725996876588    2.84178888638011
H         6.16593415570349   11.15404514256188    5.62394142472669
N         6.46803199951128   11.61341331257988    4.77286069170937
C         8.17673249277126    8.58795010920691    2.40343713355383
H         8.80363321605068    7.72817739311760    2.65104441337574
H         7.84462885217314    8.49965345975534    1.36260476738389
C         8.91148602072343    9.87703213021384    2.59429109082220
C        10.29624478461663    9.93825343483937    2.57956534750216
H        10.87195683038886    9.05323463636983    2.35552621974064
C        10.92604446426030   11.13964813070460    2.87259299512960
H        12.00290471459716   11.21115881531452    2.86639949727135
C        10.14788395285469   12.22998145131140    3.20605268606393
H        10.59558432451304   13.17065835637427    3.48777415356774
C         8.76131553277533   12.10625481967796    3.17505529666983
C         7.85718637383255   13.17437302891248    3.67576520574102
H         8.36013940062397   14.13766345310792    3.78539099998536
C         5.61099248607372    7.24282890034154    2.74488162057415
C         6.42290876455256    5.98993324347248    2.40988977111406
H         5.73840631596814    5.22471906585841    2.04482646620657
H         6.94822630437914    5.57891706259594    3.26280911310550
H         7.14254907593669    6.18841489069923    1.61935023352334
C         4.49530260091777    6.92846328278238    3.74187729494234
H         3.97866854681279    7.84683300641630    4.01875301117319
H         4.86964221539869    6.44799080746573    4.64008978857167
H         3.76964699307949    6.25832991814721    3.28299137057362
C         4.94221196299187    7.70756278830462    1.44862074494081
H         5.67240156841689    7.93867184500219    0.67671299293538
H         4.32407817618112    8.58715692585734    1.62349157240617
H         4.30137460163086    6.91327936199600    1.06802105159050
C         7.21319833954153    8.23031775713471    5.17859097392018
C         8.41146928190454    9.12090123551652    5.53090401494782
H         8.65858415251338    8.99592784821237    6.58530247194002
H         8.20122157524287   10.17391407812797    5.37402859518046
H         9.29272834951534    8.84972710021488    4.95081977833572
C         6.04388857742652    8.53786284638914    6.13140106330651
H         5.52761992365678    7.63011111455805    6.43325958792096
H         5.31222246352541    9.19067940922948    5.65146637884171
H         6.40139133573456    9.02952155532749    7.03498310273761
C         7.68042406242051    6.78695700514335    5.37088610678525
H         8.08911930281228    6.69144701313807    6.37717254197340
H         8.47069751634200    6.52377633773971    4.66989076166952
H         6.86862792010556    6.07167620699654    5.28163008251309
C         5.19254488977241   14.43820229842925    3.60110910286427
C         4.43681948913956   13.72082964853641    4.72557443784789
H         3.63363437971673   14.36413495363713    5.08422585287886
H         5.08555048360224   13.50657284719874    5.56849567349230
H         3.99681016125568   12.79126524088638    4.36759824253569
C         4.13208558693618   14.95279442784557    2.62422241400184
H         3.34962423428679   15.47408998748032    3.17472797233691
H         3.67464820679653   14.11472778923494    2.09874849439227
H         4.54160974720761   15.65314003124485    1.90321258984322
C         5.97403182689289   15.59395834719585    4.22762528522676
H         6.56925237761756   16.14261526984457    3.50500759628808
H         6.62553966567786   15.23211582737309    5.02067879733477
H         5.26555873869712   16.29063413812512    4.67533131647474
C         6.83948090691317   13.99147872212652    1.01960286621077
C         7.30181350115405   15.44604273682110    1.09605692812598
H         8.09937906932112   15.56962410987751    1.82704036737250
H         6.49106476800525   16.12689281478817    1.33690967895063
H         7.69670473361282   15.74008325753469    0.12323197475990
C         8.01971240587445   13.16771366785251    0.49030780846219
H         8.24132134558911   13.46778517026592   -0.53381261560936
H         7.78433404225526   12.10463962444883    0.47777235186360
H         8.91952821848240   13.32779544696587    1.08133811146049
C         5.68727167435550   13.84005710212177    0.01899407975321
H         4.95164919624787   14.63127275077106    0.11415691195876
H         5.18508508162165   12.88321056926490    0.16190853580785
H         6.07254250235089   13.87070048341775   -0.99920459322387
C         5.95569264684857   10.55224192287212    1.18940271719658
C         4.36661172950138   10.78311929075497    3.01792220710132
C         7.36731105300198   12.57194647829228    4.99383220539402
C         7.95662339114689   12.98246173508184    6.15753480687257
H         8.77473534869885   13.68672710668019    6.06101564509549
C         7.69676418913072   12.53608379035980    7.50091207196830
C         8.71955141471490   12.66849616179248    8.45454406843493
H         9.65861243965649   13.11262335564366    8.15084767334023
C         8.55907177967154   12.23585993056719    9.75197053967597
H         9.37133124005780   12.34492054504337   10.45800149071334
C         7.36336231371869   11.66102485503297   10.15676007231237
H         7.23670426220371   11.31741981158155   11.17303666065557
C         6.32732453313733   11.55478669471028    9.24436187067477
H         5.37801993012897   11.13753332382813    9.55289390029509
C         6.48401964095961   11.98832206448049    7.94268127155705
H         5.62998282252405   11.94113865551831    7.28212825724887

