42
CSD_code = OQUGUD | q = 0 | S = 0 | Stoichiometry = C12H18BrCoN6O4 | MND = 6
Co        6.80178081121410    4.72811875321484    2.34400525191430
Br        7.44502446528063    3.66305472772836    4.36718216353169
O         9.30510291700639    5.94258307682274    2.03761063372454
O         5.96840566574862    2.14965096518264    1.29632701925311
H         5.15916380881623    2.56280504582610    1.78101582373045
O         4.23201976481987    3.62315791094230    2.44194190822447
O         7.65875135730941    7.27054467511566    3.45986158809002
H         8.46961310388447    6.85283415114658    2.98193711290761
N         8.63252112167618    4.86640533783908    1.84645115392499
N         6.97211883335044    3.04840367629352    1.46953789796057
N         4.97779529668995    4.57931535833845    2.86190190405087
N         6.66165542338066    6.35984199441041    3.31163440658020
N         6.27318171705914    5.59737094241910    0.69421294891861
N         5.50125896612661    6.85619252514825   -1.66536971174187
C         9.12791566980931    3.80660235217880    1.27729645219117
C        10.55702973065999    3.69931486903664    0.85825671450136
H        11.04412648245403    4.65598840353418    1.03448516431194
H        10.63572480543493    3.43930489998343   -0.19597391718885
H        11.06464442052765    2.93385339308386    1.44357804244033
C         8.16832806383179    2.75238937010074    1.07921168857558
C         8.53455633589174    1.44749874100658    0.46234664664502
H         7.70321907635770    0.75355672367532    0.55534111948159
H         9.41084983352653    1.03702570050316    0.95893503616184
H         8.77066523226591    1.58233084591408   -0.59272259037465
C         4.54894946398998    5.52990757387710    3.63969147195614
C         3.16216115503037    5.56737128367684    4.19178979876117
H         2.63371760593239    4.67476883762246    3.86389065005808
H         2.62718817295640    6.44946761149398    3.84166978824665
H         3.18877595455159    5.58728431682075    5.27970211655082
C         5.53140553604556    6.54640790738191    3.91029530676691
C         5.24948733414996    7.70467418733213    4.80262788546127
H         6.09967036873141    8.38134942370488    4.80844480100457
H         5.07321174937847    7.34571452744576    5.81555864044860
H         4.35931699864346    8.23473609553252    4.46931638247955
C         5.28266438632602    5.11807542185885   -0.06452420596472
H         4.76509447531372    4.22792326626055    0.26594507452356
C         4.90690114840408    5.75571929061230   -1.23806242341364
H         4.10439913558018    5.36724414310648   -1.84799922498869
C         6.48240819333606    7.32690123738865   -0.91523159056791
H         6.97202113917694    8.22542156531834   -1.26145433497837
C         6.87644159655835    6.70945583740282    0.26311493615039
H         7.69413268277667    7.11073303373268    0.84612046968936

