42
CSD_code = OQUGOX | q = 0 | S = 0 | Stoichiometry = C12H18ClCoN6O4 | MND = 6
Co        2.20362492189831    2.83337186313347    2.26405164510822
Cl        2.81228295366615    3.79848122495823    4.11941358745502
O         1.34540634480508    5.26542738897639    1.17209434658064
O         4.85269171817686    1.67089718836782    2.08708094324641
H         4.25521838046610    1.01216686868659    2.61286045164678
O         3.00902746892119    0.31914565611351    3.19543164343081
O        -0.40446053228700    4.06056058600280    2.56467160071208
H         0.18798407883552    4.71112134487691    2.02238467210240
N         2.36105474099468    4.51063981113400    1.38864626836425
N         4.04338984752199    2.72536178873856    1.81632943213658
N         2.06916465122255    1.19336998224873    3.20936227350964
N         0.41106319511145    3.01652275050512    2.85549801585331
N         1.66595740710856    1.98017506689581    0.62234460401949
N         0.88818860597539    0.74695728771924   -1.75096832253554
C         3.56972797198100    4.82615829640272    1.02975505555805
C         3.91705111682624    6.12945262090634    0.38760202058621
H         3.01615746271781    6.73559379023700    0.32425185474422
H         4.31662151763590    5.97561509106418   -0.61400307642029
H         4.66198934927080    6.65716223570183    0.97999598019390
C         4.54157357281236    3.79759407270928    1.29717610114215
C         5.98780280555472    3.97146759390009    0.98404129475540
H         6.52479366543073    3.05293038509568    1.20392081377278
H         6.39635740107627    4.77775565655609    1.59098918338360
H         6.12110824663209    4.23341778260721   -0.06389335841450
C         0.95771153382918    1.03145967194870    3.86344713224821
C         0.68195909631665   -0.15820167894944    4.72381972743902
H         1.54567458441340   -0.81852535315032    4.69005089919446
H        -0.19748488002141   -0.69667499900910    4.37346642007067
H         0.51082238740564    0.15085396992698    5.75346682267294
C         0.01077288790002    2.09923439831299    3.67147549585818
C        -1.31493536747549    2.11635598542859    4.35127528042692
H        -1.85669905255202    3.01709100233678    4.07614981873132
H        -1.17286480279723    2.09624894899276    5.43011871971906
H        -1.89705570110745    1.24079004345787    4.06840051656678
C         0.73792607140775    2.51709389658187   -0.17658504915855
H         0.29893917124289    3.46256402895332    0.11046405092436
C         0.35927439193937    1.89241374301440   -1.35601393666582
H        -0.39145644596736    2.32813738749392   -1.99918573399821
C         1.80613343317326    0.21796468981496   -0.96011874422928
H         2.24162999732588   -0.71776235169039   -1.27926873990677
C         2.20223005602891    0.82177454829006    0.22443027766065
H         2.94334574658228    0.35523573470906    0.85857001151493

