92
CSD_code = ORAMOK | q = 0 | S = 0 | Stoichiometry = C35H46CrF3N3O3S | MND = 4
Cr        4.76767095882239    2.54162062157119    5.34448679931287
C         5.62339235579163   -1.31945421546516    6.82041889310330
F         5.79053541828302   -1.78453402079617    5.58251913679786
F         4.83334673841498   -2.17902857050327    7.46549193850506
F         6.81862828258698   -1.33318405516777    7.41920413433742
S         4.89297150176480    0.41708815716259    6.89290300580122
O         3.83821845011495    0.44185473057867    5.91490096952178
O         5.99980915833273    1.27605708944120    6.46413203434542
O         4.52872757338849    0.53362744590446    8.26661411022881
N         5.62298375457669    4.20381431647876    4.97046988058030
N         4.44296657083733    2.13171055548405    3.55056042932664
N         3.60866574155463    2.94420511892781    6.78689059129297
C         7.25254768889811    4.68473323028613    6.72146176140393
C         7.57509670595823    5.37686052798184    7.88088612919192
H         8.53428070519159    5.21572057197345    8.34830779486058
C         6.69521467437774    6.28333836867080    8.43964990250918
H         6.96619579746600    6.81842550265355    9.33760095145684
C         5.47126935326516    6.51302831343911    7.83999780812322
H         4.79741826320719    7.23299795494878    8.27660523821563
C         5.10285013096118    5.84073630396988    6.68386311829589
C         6.00374587431472    4.91420175687613    6.12459313372181
C         8.25446529933693    3.73533332975352    6.10565127817474
H         7.77129192964119    3.21976379709460    5.26839327593145
C         8.71412253682654    2.67243448729163    7.10585639950649
H         7.86457248548186    2.09166033045613    7.45398078821609
H         9.21189753405029    3.12155316847316    7.96198148763764
H         9.41372984272470    1.99375848232284    6.62300282035107
C         9.46574795932181    4.51347727001266    5.58044773569080
H         9.16010805043191    5.28858458437291    4.88310636640620
H        10.15035267824702    3.83941242456922    5.07064892486583
H        10.00017180134657    4.98699760761974    6.40100210331820
C         3.76356603679269    6.12541989932436    6.03649763847985
H         3.51768163478587    5.28324909127703    5.37288458993583
C         3.82918961116803    7.40398598047944    5.19354225343679
H         4.50524424361805    7.28507972250629    4.35491276004887
H         4.17235620650154    8.23854111073650    5.80162421123808
H         2.84102388801996    7.64207308380680    4.80613832543304
C         2.63966705898377    6.27330384257321    7.06665029302560
H         2.69417244447899    5.49759410946803    7.82394238655897
H         1.67465727941287    6.20326066972061    6.56964550519192
H         2.68995395793082    7.24119886623397    7.55992115584080
C         6.65469409125027    5.99578076095848    3.60330711967721
H         6.82009359684085    6.50921164326759    4.54625015948996
H         6.17789517192787    6.67457976009174    2.89924945466102
H         7.62245428458379    5.72157604019140    3.18219416820364
C         5.82745832314501    4.74596570519611    3.78562195299728
C         5.31612235520843    4.16352931336689    2.61902337736058
H         5.46902663817371    4.71892263347202    1.70511040617575
C         4.66875024854103    2.95062206560574    2.50431891073618
C         4.21422803007908    2.55734586791422    1.11727135808649
H         4.09679666030183    1.48130824098027    1.02610066589135
H         4.92288473226971    2.90426141771919    0.36978995218519
H         3.25318492320979    3.02849242971063    0.90880269233723
C         2.98303671956111    0.17736991074072    3.20078161729050
C         2.88600272054525   -1.18131740585711    2.93802818198246
H         1.91414423754651   -1.64958090747217    2.90321729035863
C         4.01374374332628   -1.94535127429364    2.71224351171965
H         3.92152987638769   -3.00237771130333    2.51159411296165
C         5.26094147508538   -1.35093657383518    2.72961298032268
H         6.13546147899284   -1.95267089555497    2.53630135718092
C         5.40451762578862    0.00250180521128    2.99387190772308
C         4.25154149646888    0.76736783729285    3.25293400150642
C         1.73254886875531    0.99823998300838    3.40490440158863
H         2.04238744682831    2.02109850015303    3.65332242538733
C         0.89121648417556    1.04468153184476    2.12530108414866
H         0.01447373201003    1.67121646657155    2.27677459642549
H         0.55535510547219    0.04768461572231    1.85105499172203
H         1.46539604211315    1.44903557069337    1.29588346440997
C         0.90407792988259    0.43426312067328    4.56167552178377
H         1.54015608102671    0.29127023827806    5.43074765064397
H         0.47103138460378   -0.52524358130178    4.29010818747622
H         0.08994630283529    1.11179526907589    4.81419804414609
C         6.78067915554980    0.63505300219059    2.93943341924229
H         6.69297903392669    1.70279564832238    3.17070727136309
C         7.36063032343244    0.50143783671418    1.52669062466913
H         6.67826315874641    0.91846982282086    0.79060494450263
H         7.53630194185418   -0.54216807272806    1.27860733058729
H         8.30714405939719    1.03347131819903    1.45876034900962
C         7.73860204572176    0.02839121030158    3.96692645370278
H         7.40407280798420    0.26582176690392    4.97392246840184
H         8.73497366154182    0.44516470821186    3.82973780294732
H         7.79963087965290   -1.05143300299089    3.86269562353218
C         4.16161317008523    3.19226801604255    7.98778108197669
H         5.23812620621831    3.28963197329255    8.01027783797546
C         3.43033707707201    3.28422663547374    9.15003796873243
H         3.94013864696372    3.47131623569936   10.08125932273991
C         2.04930898177032    3.12071776060830    9.10820014728062
H         1.45384528402362    3.17514485205420   10.00497084839000
C         1.46971609171269    2.88830725162416    7.86884761864435
H         0.40339387639569    2.76048919713550    7.76788076363674
C         2.27420114515734    2.82045997150116    6.75146092204644
H         1.85673646864018    2.65188992798392    5.77131359382028

