43
CSD_code = ORASOR | q = 0 | S = 0 | Stoichiometry = C16H17BrMnN5O3 | MND = 6
Br        8.58204235911277    1.35566791524922    6.06588381174856
Mn        7.54223968851623    3.48989376555670    5.43269051245703
O         6.24537772079987    6.00673124896397    4.70465741427690
O         9.82610706322662    4.91437251136835    6.59218342360921
O         9.22774553349534    3.70557987492981    3.04335768049507
N         6.48839102722032    3.30689729225409    7.15742788480289
N         5.89981930591118    2.32497517526600    4.75450272275115
N         6.60739457717741    0.52340100474038    1.58742899713518
N         4.21509769952185    0.58620857656342    1.85647987740371
N         5.39701676318792    2.54278030131870    1.08543957325575
C         6.73801727147812    5.00942995360784    5.00017784861735
C         8.91253602319359    4.36045607167031    6.17128971657794
C         8.51831566431698    3.56348434365165    3.94021794576028
C         6.79525585363566    3.78125217794605    8.36289698286369
H         7.66025087071877    4.42917156668883    8.42793803811960
C         6.07392931632539    3.47566304491867    9.50292621075878
H         6.37748862168858    3.88566908423191   10.45233238212591
C         4.97091743078182    2.63578757152652    9.40347640590771
H         4.39345239122335    2.37457904421700   10.27646840188823
C         4.63706446390366    2.14157282737139    8.16040073561908
H         3.79454435341505    1.48135869424089    8.02506156810678
C         5.41671743079242    2.49438136097751    7.05527267545105
C         5.13219940889423    1.99827586473042    5.73525854767725
H         4.27184494803761    1.34573652649015    5.62800346834380
C         5.64347634969682    1.83440195120592    3.43618318768508
C         6.81895112603865    0.92673067452601    2.95592995813348
H         7.76820887014023    1.46340647289188    3.02319395820783
H         6.88083556169387    0.03833619711808    3.59063258438415
C         5.36550502393575   -0.22503865667039    1.47815930492588
H         5.23725092835325   -0.55426410657055    0.44452108883998
H         5.41658800560368   -1.10184028882885    2.12863271693107
C         4.17545226240113    1.75585637464095    0.99063419358293
H         4.04776997613951    1.42378438967937   -0.04212030002825
H         3.32396381685735    2.38187096001168    1.27113362473904
C         5.55643418741363    3.02557265921033    2.43794276600829
H         4.69820160720980    3.65579773153564    2.69237935835449
H         6.46347763521125    3.63618248080279    2.49353981830780
C         4.35104054151286    1.00259430379209    3.24287653008697
H         4.37378111769827    0.09512294774935    3.85518604156404
H         3.46628556757515    1.59348165957872    3.50546332045347
C         6.52918733679869    1.69622736133251    0.73003122781052
H         6.41270054703186    1.37079913085956   -0.30622545953291
H         7.45162375211456    2.27365195865463    0.82443325379325

