83
CSD_code = ORAZEO | q = 0 | S = 0 | Stoichiometry = C40H37CuO2P2S | MND = 3
C         0.15376107664804   -1.04153253469696    4.80531256519821
C        -0.92995547175111   -0.77234133143915    5.63662892514952
H        -1.64617123068118   -0.01586715172628    5.33477216358208
C        -1.07221977409041   -1.45308821908936    6.83208515743024
H        -1.91105951920548   -1.23875627997237    7.47734166699125
C        -0.13400500246785   -2.40369951102848    7.20066810644033
H        -0.24042632426314   -2.93411347981340    8.13567169525347
C         0.94370919280499   -2.67593839936176    6.37240248980795
H         1.67359868793716   -3.41797381522205    6.66239755719609
C         1.09006240523639   -2.00116083424585    5.17415208311819
H         1.93600428084736   -2.20770649723611    4.53369147061492
C        -0.36254533163678   -1.36119170782985    2.06923940185365
C         0.36977536456989   -2.48400237044012    1.69748712061311
H         1.37111907677870   -2.62875477089822    2.07814850831543
C        -0.18899544965377   -3.40618827262569    0.83228379335981
H         0.37760434625896   -4.27785775496299    0.53770116206696
C        -1.47334477782974   -3.21860058643589    0.34416655543668
H        -1.90223977774282   -3.94497594087273   -0.33058907721641
C        -2.20640085895540   -2.10465613165174    0.71938535702237
H        -3.20731289336604   -1.96107496893787    0.33998465943106
C        -1.65233524602963   -1.17529526179755    1.58083623977688
H        -2.20638318660875   -0.29601012768998    1.88795115747101
C         2.00471774554417    0.06167435005398    2.92895698468859
C         2.50945939487328    0.00311436474863    1.63257089053147
H         1.85117415945885   -0.25838040642015    0.81517635427735
C         3.84423302841438    0.27497368399694    1.39635822801384
H         4.23416105213529    0.21759175226397    0.39030819649008
C         4.68069439359989    0.62339967925454    2.44416041743797
H         5.72350344578166    0.83206055124895    2.25687087384855
C         4.17623104683675    0.71589375359819    3.73164410341673
H         4.82300544797973    1.00419567272967    4.54712967904615
C         2.84317260865130    0.44879018412827    3.97314970688313
H         2.44132876977378    0.53544114889456    4.97405592493124
C         0.56272397818689    3.44080974149373    6.55522967586427
C         0.65493124187531    4.56863442644263    7.36390865286488
H         0.58443552503374    5.55429038701970    6.92452312637294
C         0.83437441071650    4.42207960311380    8.72755149694536
H         0.90599906508693    5.29808065335829    9.35608207966119
C         0.92225463880417    3.15817054065059    9.29001904620683
H         1.06057730255459    3.05216857023494   10.35598408630610
C         0.82455374492113    2.03230023014881    8.48815743165470
H         0.88329450760450    1.04560636259984    8.92435952719406
C         0.64088752271203    2.17414773828686    7.12550697003793
H         0.54127349152459    1.30542576636087    6.48615412333033
C        -0.45745794002480    5.12291854892847    4.51265292221808
C         0.07037887934740    6.12860228386153    3.71188101379976
H         1.04224307996189    6.00271035499680    3.25481879058638
C        -0.65603593367069    7.28742594533110    3.49903308681467
H        -0.24459897373045    8.07050234057402    2.87787846076904
C        -1.90845934559228    7.44337014529162    4.07005349343612
H        -2.47004490135578    8.35033014650933    3.89700059832088
C        -2.44439389115274    6.43437889887039    4.85588191901313
H        -3.42825806425929    6.54626413109179    5.28734171459140
C        -1.72545773416001    5.27566064277072    5.07327681514348
H        -2.14226627366731    4.47206188226422    5.66734055680264
C         2.01672173054495    3.75295744886954    4.12345838640179
C         2.17926904622490    3.60928447329170    2.74623743540212
H         1.31345234118926    3.37910884224161    2.13845658340281
C         3.42754574721565    3.76219341516291    2.17549742395884
H         3.55023656558487    3.65716536473083    1.10748338555915
C         4.52367038037223    4.04121300704179    2.97687368712131
H         5.50139489048328    4.15808016757022    2.53276185247255
C         4.36801881293359    4.16436624485194    4.34739429193211
H         5.22482352144588    4.37628244974872    4.97103238533307
C         3.11896684201765    4.02017852588335    4.92564625806654
H         3.00059245314191    4.11491433569722    5.99579191700341
C        -2.29340107013786    3.33851697385970    2.42992931161176
C        -2.61271341807426    5.16016739422173    0.96853172267616
H        -1.60446699080320    5.46087062612025    1.28812112350090
C        -2.53315854435111    4.48285934249131   -0.39651485431733
H        -3.51896968335695    4.13043868740205   -0.69243436780048
H        -1.85412245219114    3.63446749808079   -0.35081411377546
H        -2.16623298698374    5.18760147890233   -1.13799942552751
C        -3.54376424905985    6.36308571521833    0.95772084256951
H        -3.17361406295370    7.11027515672464    0.26116524716383
H        -3.59908136818868    6.79650776729392    1.95273559630128
H        -4.54095054423330    6.05255147719197    0.65693775867653
Cu       -0.70512570776770    1.84280780342348    3.55094353389699
O        -1.11010018724557    3.24841504672946    2.06626685155911
O        -3.13029868126229    4.24872603394918    1.94395252435512
P         0.23137577768882   -0.10581469830603    3.24628982333679
P         0.32717826006737    3.50279763817877    4.74954145965702
S        -2.95702143289326    2.31777365674337    3.59045765314531

