69
CSD_code = OREBAP | q = 1 | S = 0 | Stoichiometry = C23H40NNiO2P2(1+) | MND = 4
Ni        3.28141994724668    8.04906668730795    4.95353133134491
P         3.72290264683367   10.09117654816417    5.57131288078946
P         3.47159382447051    6.00202431292638    4.23130996339073
O         5.33466933407770   10.24890767917896    5.51602543633408
O         5.05543404269129    5.73819233902340    4.01229188627903
N         0.34702824329856    8.05908805448450    5.51358900554294
C         5.17363661782860    7.99516891743568    4.76300259169497
C         5.96982006033617    9.10140581144925    5.07366135291714
C         7.34864154895483    9.06994157036888    4.94835659157958
H         7.92395423610785    9.94675254316581    5.19747505757291
C         7.95909687692037    7.90927951374561    4.50344249017221
H         9.03179263120094    7.87647343990439    4.40267735502586
C         7.20742963968037    6.79000924940976    4.18729801377537
H         7.67221924857253    5.88132205842921    3.84073204691067
C         5.82995913050809    6.84311563890562    4.32004760216744
C         3.34830432328795   10.55065572116580    7.32305516465896
H         2.25929564826144   10.62813207035092    7.40888944578250
C         3.83747963135049    9.38640096618241    8.18205422049261
H         4.92354141763334    9.31814199683936    8.14279016118546
H         3.41923062722089    8.44339072673500    7.81440818362506
H         3.54020846140260    9.51457283242812    9.22034953873226
C         4.00482368169861   11.86832620875834    7.71097448707668
H         3.86733350683506   12.04908167481671    8.77514988361509
H         3.57113379810964   12.70400558035587    7.16678059497029
H         5.07263639567455   11.83450753175310    7.50630279998240
C         3.19018403495285   11.47676699682822    4.47477258439941
H         3.78546621379504   12.35469061159433    4.74884609166769
C         3.52909920458355   11.04934863333512    3.04868117279742
H         3.01440879075551   10.11451156601453    2.80892144008389
H         4.60069556041446   10.89105802914228    2.93584869142220
H         3.21818611773559   11.80634762595166    2.33233921906151
C         1.70367477836428   11.76025151464472    4.63518820146402
H         1.39462920591227   12.53508690110702    3.93682045353753
H         1.46991617668850   12.10004953812163    5.64173429528147
H         1.12557563798177   10.86107493577887    4.42445929879846
C         3.00693313091924    4.62929909354678    5.38013229376810
H         1.91481838120984    4.63334188647771    5.46088203957865
C         3.61220581243958    4.98479486965516    6.73649258868998
H         3.28191829678319    4.29042907532077    7.50560815564976
H         3.31478758101693    5.99662552940126    7.03036086465980
H         4.69938113172812    4.94830067987813    6.68651459605754
C         3.49510517081085    3.28120997013321    4.86791073865625
H         4.56392727972598    3.31587791470615    4.66863976842183
H         2.97887742258598    2.99171819879266    3.95565863372182
H         3.31309938942911    2.51439624503056    5.61816780552608
C         2.80843916799873    5.61396240387064    2.55342180222388
H         3.29758573240218    4.69453291843191    2.21375184442157
C         1.29698312534593    5.44101335297603    2.58965028019897
H         0.82747647629619    6.33711811394053    2.99408314676668
H         1.00772276005841    4.58860592731512    3.20010299076322
H         0.91598118285603    5.28080213458712    1.58326963643779
C         3.21802422102732    6.77854893226071    1.65474281432470
H         2.83631664799646    6.64383260408685    0.64526169351716
H         4.30246872221559    6.86457405264967    1.60200508430926
H         2.81573814089230    7.71427063013465    2.05455418919147
C         1.46980296604584    8.07635898872635    5.22219124930087
C        -1.01549087806098    8.03839715368325    5.86729122508427
C        -1.09250904773874    7.80663531435271    7.37899436702680
H        -0.63296097369120    6.85795032620642    7.64673695130364
H        -2.13330906363380    7.78725728542639    7.68821688387507
H        -0.58534930937354    8.60416811680890    7.91717912357324
C        -1.62213133168988    9.39116780594541    5.48560350248167
H        -1.12698465948708   10.20035766621239    6.01762395507785
H        -2.67613465319166    9.39993246518416    5.74670991699206
H        -1.53039424965372    9.56710996216708    4.41610702767976
C        -1.68578338003929    6.89611335961851    5.09966819776857
H        -1.61196085995302    7.05629011069667    4.02639450587535
H        -2.73665537910716    6.84819994167666    5.36898733745800
H        -1.22195019555444    5.94328094429807    5.34446525548775

