114
CSD_code = ORECOE | q = 0 | S = 0 | Stoichiometry = C48H50CoN5O6S4 | MND = 6
C         7.00828766874831    8.29101654169249   10.31175538665746
C         7.23099240157788    6.94054075707741   10.12980919480842
H         8.23859265357781    6.57706364960787   10.00569099314276
C         6.15286356765051    6.06424523762686   10.08307612951746
C         4.86962171858251    6.56878929125283   10.23640325694103
H         4.02671186451426    5.89174977729775   10.20939104376754
C         4.63992407827809    7.92564439610688   10.43389799311832
C         5.72295236633159    8.78969451048889   10.46297071603943
H         5.56884966380646    9.84916326175516   10.61271951769461
C         6.39316647299208    4.60256045327630    9.86082835837285
H         5.45847697939267    4.04746512912066    9.85570080841427
H         7.03269005212937    4.20162329930481   10.64567540812983
H         6.89929235329917    4.44673022138608    8.90925200853865
C         3.25190567029511    8.44545530597003   10.66051735776131
H         3.15509611165791    9.46905403573842   10.30461802345279
H         3.02957373863565    8.43980313950755   11.72803453874830
H         2.51320879897267    7.82263518850688   10.16111460036283
C         9.14604586433030   12.36860203453661   10.99419936768740
C        10.11778719810041   12.01937657647610   10.07102471149590
H         9.88125674385599   11.94116821026985    9.02122584990788
C        11.41186744677195   11.77619187154239   10.50384319795448
C        11.71409135766741   11.92193048124029   11.85185964316233
H        12.72586069699622   11.74120097363859   12.18706256938396
C        10.74874366035389   12.29633367107446   12.77549916199793
C         9.45048605190296   12.51428690436206   12.33644109880395
H         8.67663259412675   12.79669462228028   13.03410855171552
C        12.46688948668731   11.35878524392781    9.52756447914512
H        12.08333202755176   11.39580528609270    8.51217733650141
H        12.78801387794476   10.33948768548968    9.74009454943823
H        13.33815584253037   12.00714973311852    9.60338629966723
C        11.08639491884107   12.43292133540996   14.22915644625477
H        12.13936669867709   12.66864935223120   14.36252447772875
H        10.88085603852758   11.49531747024076   14.74632124185450
H        10.48651635811501   13.21158516102220   14.69442968955419
C         6.53894800040403   13.78616362655709    2.92286008834171
C         7.86260977634248   13.38317798088552    2.87988104491099
H         8.11076507804772   12.33916701697808    2.75788950960927
C         8.87046324443800   14.32704581631784    3.01069721971340
C         8.52216477560428   15.65967746112090    3.19251069893484
H         9.30405947065716   16.39788756729953    3.30667058363802
C         7.19550489559728   16.06558254085422    3.23692648466919
C         6.19491326425532   15.11321292322548    3.09174911037687
H         5.15487512744069   15.39737974126009    3.13007854330599
C        10.30562323737515   13.90306451270781    2.92458367266640
H        10.44799222149817   12.93458406088465    3.39949316327490
H        10.95938583316668   14.63468016359399    3.39471987558605
H        10.60004732980588   13.80804639675754    1.87860216482025
C         6.83442806802980   17.50750274919632    3.42710198334248
H         6.00218116983842   17.60411078704345    4.12090580179977
H         6.53069461874206   17.94516274233402    2.47574663562636
H         7.68032933695724   18.07315866408285    3.80950158058666
C         4.41915635675210    9.71010797726927    2.11171124367517
C         4.11618209893974    9.88785596993075    0.77290702416127
H         4.88799331885802    9.76065010457701    0.03005000583448
C         2.82877249553926   10.24348659593055    0.39772941228017
C         1.86554598757812   10.41862074185632    1.38319192474154
H         0.86462645273710   10.70907346087215    1.09724855785946
C         2.15800292517749   10.22677788138827    2.72585445668213
C         3.44394795400080    9.85177720181022    3.08628419563350
H         3.68220235654823    9.67876937174180    4.12691581529574
C         2.50043926577179   10.47030169865266   -1.04546003590937
H         1.43724564924556   10.33718553622704   -1.22917929504314
H         3.05956463874940    9.78793079762105   -1.68109354246373
H         2.76956499000236   11.48844009949262   -1.32690131392475
C         1.11850711882696   10.43401141572060    3.78529194388056
H         1.18361543199088    9.65799179533803    4.54587689983880
H         0.11949953852607   10.42907247917735    3.35734633650982
H         1.27898495440145   11.39648534109006    4.27147936496716
C         9.08602654278438   13.68646748514007    6.52417861800985
H         8.05446185875305   14.01585876645961    6.35777281343977
H         9.65676157286255   13.85975179857518    5.60418139450839
C         9.70921744648914   14.39705144130795    7.69280219052068
C        11.08554186485084   14.34349968471518    7.87739344284320
H        11.69767707106566   13.83429791805615    7.14770232832648
C        11.66603963161151   14.92266128192548    8.99054417008941
H        12.73623687018833   14.87205561502751    9.12828417031614
C        10.87652882840081   15.56292261967753    9.93070212260099
H        11.32861197188275   16.00601149896212   10.80595931973797
C         9.50741941724721   15.63310238629616    9.74493960176820
H         8.88629502563881   16.13174858195592   10.47446591744799
C         8.92472757863730   15.05390277780709    8.63060303995978
H         7.85421819995349   15.10111289961071    8.49680156639169
C         3.83943314882484   10.88464489223233    7.15295032947874
H         3.97969336149171   11.95567342099119    7.11490781114053
C         2.56442996323275   10.36296455824120    7.27569032912034
H         1.71840140882963   11.02912760517149    7.33235900799957
C         2.40055679566525    8.98732005406943    7.31470764934313
H         1.41706511896980    8.54883568654038    7.39315037266094
C         3.53393334692469    8.19382625842867    7.25960467335138
H         3.47180574353301    7.11871422827110    7.30256770009942
C         4.77314314993091    8.79820781249119    7.14483419900204
H         5.66486055488726    8.18708862431932    7.12103718094787
N         4.93018815568783   10.12050225070332    7.06964406097959
O         8.35029356096813   11.54998799542884    5.94284002103292
O         9.11494721389144   12.29426881882332    6.83899080999253
S         8.38146814237634    9.44163192409229   10.35429655454090
S         7.48646625748862   12.74942626032288   10.47875805458847
H         7.66990373582339    8.37411927998538    6.04941526645615
H         5.76943321094883   13.50355763726785    7.07367937673419
C         7.80662460400583   10.38627479464851    8.96613178588240
C         7.32179960874969   11.74019646305731    9.06389613667862
C         5.78064188120949   11.56195982167405    4.12057906755819
C         6.23672422663501   10.19741921315339    4.02122536780587
Co        6.71145099640182   10.92620481486338    6.57193110055403
N         7.59984608300099    9.83021331466960    7.81416701205686
N         6.63702512030090   12.11922203606409    8.03631388862383
N         5.87509308994228   12.06657985099373    5.31053250098512
N         6.79482953906772    9.74625756816469    5.09131859452326
O         7.85553494143752    8.60060196047563    7.57740768253484
O         6.03614394441074   13.34024141463323    8.06092343693510
O         5.51941409341809   13.27056390289844    5.58006891077395
O         7.28920563867879    8.48836326953554    5.09915575798770
S         5.26550450209610   12.53996834038173    2.73721559188740
S         6.07023497544310    9.22122714348981    2.57392390889000

