112
CSD_code = ORECIY | q = 0 | S = 0 | Stoichiometry = C48H50CoN5O4S4 | MND = 6
Co        6.74251351616972    0.93271232951355   29.35454518681667
S         4.51054873586894    2.34215126446265   32.89099093638868
S         5.87109758553990    0.39223321533511   25.08516465238805
S         7.74032842234738    1.72836464560094   33.55500359736992
S         8.95306442979541   -0.63237144111662   25.86364815657274
O         9.32895680689444    0.00556882412745   28.76803713294226
O         4.17216890970704    1.84883959436173   29.94674863251712
O         8.95255781210777    0.54204162113500   31.21149784541699
H         9.27257011680801    0.21227959221085   30.28446703248639
O         4.50374131060895    1.17697779125111   27.51473210666172
H         4.15866712379781    1.44236923762857   28.44670623923651
N         7.67617229189104    0.94672235132255   30.99469329397528
N         7.40207696136423    2.92077640464439   28.92607162516560
N         5.34039841918788    1.61946096386942   30.40259242220971
N         5.80663204915598    0.85185404257362   27.72259298845069
N         8.17237608286683    0.27873154689351   28.30263099783125
C        10.19683487292270    0.58043549663363   25.51178708146271
C         6.02893313807389   -2.34375938544520   27.73296780055059
H         5.09052547419442   -1.90008394781268   27.43090369363128
C         4.21343330956826    6.04029592933112   31.23028023924076
C         9.05542627425331    4.63646867379914   29.07244639244086
H        10.02405149011477    4.94045331922605   29.43644832146069
C         7.81142085597598   -2.57256942876287   29.32454340020755
H         8.27268672941984   -2.29498533660584   30.26137930972830
C         6.52789040139744    0.49928603809743   26.71237923842683
C         7.50049299548086    4.38286248729413   32.89955805107513
H         7.96495215646081    4.10431171720942   31.96367222456661
C         6.61555909912814   -1.95618813703898   28.94212153422460
C         6.56943566126500    6.03212380896271   34.35713286653595
H         6.30091623535076    7.06119522394508   34.54753904265277
C         3.55281087464306    6.71407239287042   32.24364277627764
H         3.30076464857158    7.75757508076708   32.11441747488378
C         6.30690046290778    5.06958374181249   35.32133769731188
C         3.19612438715751    6.07156198220443   33.42497177709052
C         7.88675821136172    0.16004897576462   27.03980728782962
C        12.20293805248772    2.33789791563778   24.81858873842777
H        12.99413194647320    3.02389656980963   24.54916720407032
C         6.00691117895388   -0.91592973769061   29.77725691436420
H         6.20500432393849   -1.09143852191224   30.83547370098596
H         4.93042151575229   -0.85535587672982   29.61004863079755
C         7.23795084341176    3.41542607076369   33.85701334765751
C         5.67422460774608    1.86953605830186   31.63533999412782
C         6.65923778200576    3.75079328658805   35.06714978236429
H         6.46694553680788    2.98069259686149   35.79786822384346
C         6.63324711015701   -3.28464767473695   26.92348025008103
H         6.17045986817334   -3.56325641573177   25.98796480385318
C         4.17968255063162    4.05200123338241   32.56867185598458
C         7.02812665661138    1.50421213303052   31.96208871108838
C        11.99747092938111    1.20101316595411   24.04340391866322
C        10.99523211761434    0.32018995811708   24.40401184662156
H        10.81883552681652   -0.57676600857782   23.83028378728403
C         8.59727981666407    3.35372994054948   29.32372214232291
H         9.22438089106089    2.65446353604261   29.85960405368875
C         7.16910240624805    5.70536860445303   33.14796894726688
C         7.83306527780795   -3.86400336056271   27.30421083978219
H         8.31240086010104   -4.58869262986402   26.66299644016287
C         3.50630803918332    4.73304472039714   33.57579564468249
H         3.23210537886674    4.20322211813140   34.47535576898711
C         5.67050721063633    5.43984868370058   36.62508926322291
H         5.12746641456571    6.37724968039009   36.53757973368748
H         6.43567127613430    5.55800058874247   37.39280302407096
H         4.98641490135278    4.66090221348554   36.95333191784622
C         7.16307316456682    1.25014792730863   24.20101549438754
C        10.39904371125723    1.71987123123941   26.26736661358964
H         9.78403834669226    1.93098277622064   27.12790726046552
C        12.86331052711726    0.93587804665772   22.84948165080122
H        12.46110935916111    0.12235767386513   22.25183605650954
H        13.86870212745013    0.66280116443281   23.16954641881202
H        12.94355637625403    1.82652547148684   22.22833227233717
C        11.42089835427236    2.59959287110759   25.93080108204349
C         2.47289313364596    6.82031597283705   34.50268149055692
H         2.95563988995078    7.77691361598148   34.69597323400590
H         2.44579555367306    6.24460694168974   35.42395806763671
H         1.44737149723422    7.02235509814142   34.19368094323814
C         7.48420259292897    6.77562790002767   32.14828577267237
H         6.64142495730613    7.45415563830986   32.03962920384802
H         7.72222829878757    6.34475870388640   31.17834483137717
H         8.34355768708717    7.35605102427106   32.48513500797933
C         7.01441851716116    5.05273524174140   27.92425698401932
H         6.35404704642262    5.68442404414160   27.35135031249030
C         4.54341104231399    4.70160784844960   31.40458752153961
H         5.06863697339501    4.18162116238855   30.61897756201006
C         8.41314323507942   -3.51219456546322   28.51261503004844
H         9.34372476886885   -3.96753530025315   28.81795580094727
C         4.55437438052691    6.72586997745141   29.94056884527317
H         5.60587644843291    6.58614322078644   29.69595030638845
H         4.34489452236267    7.79117026353766   29.99852578877737
H         3.96177924897497    6.30233008344749   29.12996272086837
C         8.64827157761851    1.39159000698382   22.32432203821888
C         7.58750413294551    2.48953383942343   24.65416388809143
H         7.16763528581200    2.90664076550011   25.55914770286106
C         7.67500619303699    0.70521103953452   23.03784994497465
H         7.32775992653567   -0.26001126323045   22.70380559396490
C         9.07116449861384    2.62987775907465   22.78595599148855
H         9.82676450600524    3.17173536200692   22.23565203929714
C         6.62613505213514    3.76257360485994   28.24502064897489
H         5.65167928273654    3.40377616677149   27.94314296860345
C         8.54764420910316    3.19156372231527   23.94292685799008
C        11.67664289491395    3.80262408727799   26.78948727741417
H        10.76235401781116    4.37611463790825   26.93212196163854
H        12.42986206914012    4.44692496226807   26.34272476722725
H        12.03152468594944    3.48675494525833   27.77019056938984
C         8.98997851475768    4.55143801396600   24.38939225318813
H        10.07112125833635    4.64239655629089   24.31638728485872
H         8.68506216814102    4.74224572108748   25.41591767409286
H         8.54292318517724    5.31477201404842   23.75194303190123
C         8.25243382287696    5.50577581736674   28.35152843277828
H         8.58276721688765    6.50967827465142   28.12829882114954
C         9.21347270702354    0.80556289769777   21.06767222089324
H         9.29764880020693   -0.27521101122675   21.15191693240295
H        10.19341026800577    1.22372302726315   20.85294319776848
H         8.55627109320052    1.02559555446276   20.22593308625570

