56
CSD_code = OREDIA | q = 0 | S = 0 | Stoichiometry = C24H25IrN2O4 | MND = 6
Ir       -1.94268375486271   -4.08765589178476    2.20922754870843
H        -1.77182588684027   -2.66985900369035    1.71130446967808
N        -0.01399955200137   -4.48785768975053    2.30741768138386
C         0.33737599634252   -5.64413415948403    1.77201956666076
H        -0.41643434903784   -6.17028025935754    1.20858533039186
C         1.61070831073154   -6.22195939479458    1.95790479400871
N         2.50935796688502   -5.64656818700710    2.72913442658439
C         2.20102685266547   -4.45407443690579    3.26250116928891
C         3.16192537500894   -3.80688162427388    4.06574321807934
H         4.10158035210340   -4.31177896062638    4.22469293795846
C         2.89835449181010   -2.57710165801716    4.60142762552113
H         3.63689077420665   -2.08262465385300    5.21476964720250
C         1.67488387707173   -1.94246780942904    4.34375892096093
H         1.49075641510788   -0.96168437620347    4.75482995000122
C         0.71489476371318   -2.54676157304164    3.57386752333366
H        -0.22539430595556   -2.06295314915009    3.36745086983059
C         0.93954783025441   -3.82505736089148    3.03487359391835
C         1.96059942792926   -7.50441083027493    1.33843932358420
C         2.96003864411227   -8.28641597215495    1.91711254582146
H         3.44562741432489   -7.92296191064563    2.80914007196531
C         3.31311494399238   -9.49894054898449    1.35799409390811
H         4.08512916364873  -10.09907095689528    1.81667451313127
C         2.67890153278153   -9.94530769772324    0.20956906253006
H         2.95377498180186  -10.89345105953928   -0.22850217031719
C         1.69505041836229   -9.16832143517314   -0.38006428378849
H         1.20797012908879   -9.50911189335886   -1.28204934136179
C         1.33479860780646   -7.95548717384591    0.17741863379916
H         0.58319174690201   -7.34991857304412   -0.30561893837680
O        -1.99158499271121   -4.75197205438203    0.27140686342394
C        -3.05942079619122   -5.05211890329680   -0.33493732544469
C        -4.36638123206855   -4.89697583647182    0.12052463143400
H        -5.15935757348756   -5.22316687890646   -0.53504780933251
C        -4.74109549774925   -4.35309924146688    1.35441223081197
O        -3.97951202425870   -3.90204357147183    2.24719242904017
C        -2.87771299210137   -5.65736520364562   -1.71244112255900
H        -3.45953494433578   -5.10350093938258   -2.44460528454450
H        -3.22231384314741   -6.68968014875745   -1.70968302944463
H        -1.82709902652841   -5.62908180613358   -1.98915321606295
C        -6.22549907987472   -4.28909419588041    1.64846714185635
H        -6.65110770682241   -5.29038306856820    1.63405026725177
H        -6.72775221798949   -3.69155375262381    0.89105893874261
H        -6.38377227463359   -3.84142841605418    2.62590455456511
O        -1.94889063967458   -3.53443389837148    4.19193226807358
C        -2.27293914356034   -4.29430366148858    5.15242492354105
C        -2.56930603036081   -5.65219517584683    5.12784389208218
H        -2.82324357240675   -6.11348098335410    6.07074006763409
C        -2.57586035035699   -6.48463392008237    3.99743909856097
O        -2.31281988724550   -6.14428585397778    2.82718793818549
C        -2.31744182930026   -3.61543484104401    6.50846340947821
H        -1.62970164312181   -4.10341248705380    7.19543327577589
H        -3.32146220945249   -3.68103762609495    6.92128687127127
H        -2.04128751967580   -2.57072437415755    6.39779466321167
C        -2.92164039185398   -7.94142045386809    4.24190833577365
H        -2.89818947301612   -8.49060081736639    3.30346872898329
H        -3.91486068302961   -8.01750096253163    4.67990710805783
H        -2.20717459301500   -8.38167268782719    4.93489736524021

