65
CSD_code = OREDEW | q = 0 | S = 0 | Stoichiometry = C33H21F4IrN4O2 | MND = 6
Ir       14.43999542108080    9.40738043169518   10.14290845039729
N        13.15962540813028    8.20431707957465    9.15617016015867
C        12.94266829056548    8.18397892677554    7.81640772616097
C        13.17344011133964    9.31704438422565    7.01396786740148
H        13.49056578748856   10.23242731352438    7.48699100459476
C        12.98359952918917    9.24987611369172    5.65950984480902
H        13.16009265690487   10.12431169696274    5.05134387584430
C        12.54946609653109    8.06414290571488    5.04789051907354
H        12.41653223887725    8.03700972932963    3.97688157251998
C        12.27329659833937    6.95841086073691    5.80478502566552
H        11.90591521383115    6.04253172698720    5.37009934501716
C        12.44413185339297    6.99869095111790    7.20055281670045
N        12.13301069236305    5.91350240052645    7.93755815538107
C        12.23203372609221    6.00869161584057    9.22919644154399
H        11.94321418953803    5.13430093203015    9.79131207171078
C        12.74112640326978    7.15933713483038    9.88347320491165
C        12.88162798966579    7.32793383883313   11.31895084387517
C        13.57007131759344    8.50430023075127   11.70557491117131
C        13.71434797081839    8.77885255806328   13.06009501426458
H        14.22819707611623    9.66464245948938   13.40015914099758
C        13.18871322520950    7.91307705449091   14.00082703045558
C        12.51571274553731    6.75508998302283   13.64892117171405
H        12.11356166139047    6.09012220952460   14.39500618348166
C        12.37224006867939    6.48119473580234   12.30486201666926
F        13.33521569702502    8.19664125189992   15.30889587922513
F        11.70731656229619    5.35311533472800   11.97682663323297
N        15.75091818035966   10.60110614593226   11.10289603124192
C        16.95468767182271   10.23409346703629   11.61141764040707
C        17.21716525804553    8.90754250179339   12.00184546181258
H        16.42635215555948    8.17859405942468   11.92764678930800
C        18.45425956740342    8.56343437464867   12.47751519194617
H        18.64658983696465    7.54456041724725   12.77841279741347
C        19.47599250197436    9.51803749946897   12.59332390034313
H        20.44427660993740    9.21706731337889   12.96390526117723
C        19.24079934227867   10.82430314055062   12.26151686193781
H        19.99406025115874   11.58837103609714   12.36895849353761
C        17.97636684354969   11.21361949878554   11.78336189320892
N        17.74861825049106   12.51034855782813   11.49330137893668
C        16.54921174383517   12.84818059172191   11.12665447471248
H        16.39174962865590   13.89783015581455   10.93317971030949
C        15.50669778954665   11.90731186486996   10.92876707847800
C        14.14827367007886   12.21900606947816   10.52082482223417
C        13.34979363164435   11.08552247374860   10.23025726864647
C        12.02040869563454   11.27840551123895    9.87471568185352
H        11.37480344412868   10.44413955351111    9.64768553733328
C        11.49987076475175   12.55745272671011    9.81327641416123
C        12.25993611941883   13.68157235955365   10.08964172456147
H        11.83879274789568   14.67166169397913   10.03618489618521
C        13.57978030645448   13.49141101947520   10.44184587022338
F        10.20883785163675   12.72538883129291    9.46982408443383
F        14.30611521003195   14.59561527488922   10.71649212046140
O        15.54742103134405   10.20471072326178    8.41475220075764
C        16.46389712433096    9.65124905194865    7.75650251103006
C        16.99124099911385    8.37409510767299    7.95880114460321
H        17.76978967688977    8.05381155009386    7.28342228866240
C        16.60683215549181    7.47263183651186    8.95397634435778
O        15.73694099941170    7.65204203299907    9.84297908192437
C        17.04795929023139   10.45171469042566    6.60939842737848
H        16.78305649083849    9.97877763166891    5.66532207798787
H        18.13215770176223   10.48610099804887    6.68379436657278
H        16.64881779499852   11.46296360893905    6.62541589231948
C        17.32511592002551    6.13788782619813    8.97162319857711
H        18.38128078238119    6.29332214708946    9.18372591686348
H        17.23823246147459    5.65101770539044    8.00291243146866
H        16.89578096716675    5.49857509110982    9.73905582564602

