43
CSD_code = ORESUA | q = 0 | S = 0 | Stoichiometry = C14H16Cl2O10Zn | MND = 6
Zn        7.22280145735530   -0.01053028858397    0.00820464967600
Cl        4.77336304262473    4.14598780252963    7.15637259482088
O         7.37138128179110    1.84858620628796   -1.01216414481508
H         6.55650441005235    2.17768572528325   -1.40119345724579
H         7.57690706401359    2.41493769208926   -0.22999859535095
O         5.23523217139919   -0.43289470275340   -0.64743888478146
H         4.65063101255723   -0.57629057703457    0.10336132499006
H         5.40980195455672   -1.31896317345843   -1.03078160740216
O         7.88181090768462    2.60762258098762    1.46830325971186
O         6.48694811592714    0.89464151712520    1.56400044226430
O         4.94174776076761    0.59508848766270    3.60441759348623
H         5.41540060128234    0.37595968671753    2.76609460529198
C         6.40292487899958    2.48577744007782    3.31178862074225
C         5.42200594252126    1.76995770542822    4.02336919782132
C         5.40059039849039    3.50930064838773    5.68248626090050
C         6.37251218912468    4.22443677045701    4.99042535116960
H         6.72973063890725    5.16612259172476    5.37347603107892
C         6.86230419086855    3.70317517267345    3.81459466402843
H         7.61726650441800    4.22961520617629    3.25100460565310
C         4.92726082902863    2.30021329451227    5.21623606880297
H         4.17615493066346    1.74634388848465    5.75547611266112
C         6.97029813251874    1.97960474964739    2.04208392344801
Cl        9.66150310416877   -4.09862316892474   -7.18130416777464
O         7.07505358081467   -1.87257003414379    1.02023198477697
H         7.88953861696550   -2.20071343204110    1.41072128344906
H         6.87438842972267   -2.43620833990517    0.23401322940436
O         9.20992869546653    0.40409525102574    0.66512201077620
H         9.79878947054492    0.53831217087288   -0.08447523820033
H         9.03881184653012    1.29393625676371    1.04206316582416
O         6.57452880667883   -2.62971061124912   -1.46220310589470
O         7.95920578691507   -0.90834451838154   -1.55139892580362
O         9.47738003865870   -0.57241529653220   -3.60604475403703
H         9.00955558445637   -0.36476671785955   -2.76158348243191
C         8.04344782402269   -2.48407024210585   -3.31251761460444
C         9.00873566406000   -1.75095461412898   -4.02786946715416
C         9.03864566189133   -3.47948057518099   -5.69814922157866
C         8.08245823427813   -4.21182532273395   -5.00222022181305
H         7.73441001081883   -5.15586328802023   -5.38810179246604
C         7.59577919520966   -3.70424144739432   -3.81911957594977
H         6.85197656427272   -4.24387747428567   -3.25274850031901
C         9.49979487510356   -2.26705079025032   -5.22843699985732
H        10.23856231711104   -1.69970177668284   -5.77062693491447
C         7.47992727676110   -1.99230445325882   -2.03547028837990

