78
CSD_code = OREYIU | q = 0 | S = 0 | Stoichiometry = C29H39N2O4PPdS2 | MND = 4
C         9.37992411583746   17.93303312250223    3.13490127472908
C         8.26169281483700   17.12766308804455    3.27480439682503
C         8.31251140509194   16.12713869653238    4.24683383542649
H         7.49665767099041   15.42822668042444    4.34946442990298
C         9.42039171126467   15.98954153932122    5.06616121436892
H         9.43472605467529   15.20963273558640    5.81386668367550
C        10.50893435517292   16.83741661374833    4.93047513701347
H        11.36655102128220   16.73007799789448    5.57719762152178
C        10.49390851489208   17.80336546774639    3.93817247801022
H        11.32730727878502   18.46581968190409    3.76395626597451
C         5.41870321680701   15.20512366783908    1.47331392071106
C         6.43122088470187   14.52904607542865    0.76978715847410
C         6.09033882365637   13.56838450712860   -0.17205993650539
H         6.88270803920746   13.05356738513072   -0.69635248029447
C         4.77506557319026   13.25068104339672   -0.46099399648476
C         3.78904036263483   13.98183102076541    0.17774933840858
H         2.75330690206717   13.80068040232533   -0.07397016358949
C         4.08224944588609   14.96713685433483    1.11005752513271
C         7.89370526921838   14.80683119291597    0.96685176724508
H         8.47942646129732   13.94912512461674    0.64090184103916
H         8.12705617349734   15.01018007206837    2.00869432005357
H         8.20404136879725   15.67690492544529    0.35377907271857
C         4.42351008808022   12.20021624606709   -1.47021058488817
H         4.10631513307729   12.66785289977939   -2.40240275582101
H         3.60380658203889   11.58054716758134   -1.11184582140738
H         5.27932026878159   11.56450875661288   -1.68197543822516
C         2.91861945653967   15.78852418017924    1.59578637844648
H         2.17564695310155   15.84806485935798    0.80254232917960
H         3.22970980424058   16.79997733664761    1.84037574706947
H         2.42773954188126   15.34440370353628    2.46302579171390
C         4.99866100469928   16.24671218707423    3.72698988763755
H         5.57717546823244   15.87990423835371    4.58221830617481
H         4.08177117245293   15.66601510893408    3.68407091020180
C         4.74052591973275   17.73955768267216    3.92064735045275
H         3.79785507088971   18.05559710594319    3.45217610281145
H         4.68231329518606   17.99323918862517    4.98263380969692
C         5.96408153797791   19.82066499675546    3.47825201016516
C         5.52807144678320   20.69798354130509    2.48224087969664
C         5.61408495538784   22.06332968350691    2.70704918998572
H         5.28523070948560   22.74296122893544    1.93293318419711
C         6.11851681767430   22.58007013522460    3.89018645160228
C         6.54701795197850   21.69303327736962    4.86381991543230
H         6.95509273587453   22.07489191299926    5.78947450304932
C         6.48152099730477   20.32033997010359    4.67484128117030
C         5.00901090913811   20.19887854331501    1.17056528749680
H         4.43817391375741   19.27890999150042    1.29264366497427
H         5.86454634976805   19.98701067953731    0.50381451059430
H         4.37793001607650   20.94934631865757    0.69864694547938
C         6.22897713872610   24.06106773394971    4.09596435860117
H         5.43179911295949   24.58649369717271    3.57481139122329
H         7.18132722521476   24.41783778166275    3.70323573316412
H         6.18533383331215   24.31141943929043    5.15339960519596
C         6.97056483976037   19.40977951590347    5.76348466117533
H         7.82402984982699   19.85607907907226    6.26870059886740
H         7.27070335409788   18.44643977478136    5.36088785951602
H         6.18836574561542   19.24918169636519    6.50781380773913
C         5.49415120193775   17.41420082171900   -0.79942728107520
H         4.61503960119048   17.29969731732243   -0.16932301327042
H         5.67114468180312   16.47149776151452   -1.32353428891421
H         5.30196101289854   18.19774133194246   -1.54013812203622
C         8.33100802635343   21.15188369019784   -2.24590846471921
H         7.29277601895363   21.40278850114816   -2.05617606418054
H         8.45093581520241   20.84251037162591   -3.27684919829220
H         8.96328454815381   21.99986788907550   -2.01448369890952
C        10.44233378544951   19.54096971714280   -1.78444544467835
H        11.01333547817253   20.44066100661645   -1.59168885738291
H        10.37033570076486   19.32507944256314   -2.84404337678880
H        10.87362496568531   18.70473361841967   -1.24678103026259
N         5.78183330151714   16.10160206796179    2.50808498897254
N         5.87672282113316   18.41143467907556    3.30918847489672
O         9.49983760344264   18.09198183138187    0.59947341910664
O         8.05877883701319   19.67722374312994    1.77224797344590
O        10.47796162683845   19.94606114850335    1.80696399642686
O         7.98300437338818   18.64409292874203   -1.72081837297166
P         6.74792535263777   17.46296426731125    2.22858867908178
S         9.37008337821235   19.02961861242267    1.73305005779348
S         8.76722618392682   19.76501488046237   -1.10411078084632
Pd        7.23067902186166   17.92802681786108    0.12784084788534

