94
CSD_code = ORIHII | q = 0 | S = 0 | Stoichiometry = C36H54AuClN2 | MND = 2
Au        0.07111829411245    2.19320863202016    1.49730541640515
Cl       -2.15073343572717    1.84955512722210    1.36741015161267
N         2.77255270562630    1.99239777273010    2.57743187386823
C         2.21471985871953    1.40000891197243    3.75594493774069
N         2.11979627455692    4.92685329829463    1.08232598850765
C         2.64545044712531    7.15524227341316    1.83462112336201
C        -0.67389464664920    5.62748722755742    0.67113219174489
H        -0.20717176727584    4.64147072536505    0.55790645195582
C         2.04023890566272    2.40652799137830    1.59469196598215
C         2.01510038250975    0.01246574874483    3.80540996716094
C         2.12252433487119   -0.88310889515715    2.59191408709595
H         2.52511518088331   -0.30787649372391    1.75512512085585
C         3.01640658695003   -2.10401807242217    2.82695392697325
H         3.99174077271946   -1.82030055940913    3.21434490906207
H         3.16051637760264   -2.63888004143378    1.89061802617663
H         2.55751476875330   -2.78966662647412    3.53373634354104
C         0.71680823782921   -1.34562182812208    2.19205640733671
H         0.26483928641830   -1.93980694441003    2.98157307991467
H         0.76737699865711   -1.95074527303289    1.28953543130959
H         0.07194027012860   -0.49015016508879    1.99747492836220
C         1.58887834860997   -0.55158627411874    5.00093913504256
H         1.44406053443199   -1.61831980578889    5.06123249994633
C         1.32614210174814    0.23044740956204    6.10669476816647
H         1.00736557360425   -0.22628033141153    7.03140939798654
C         1.41457239129111    1.60327831542847    6.00506754681666
H         1.12834527390514    2.21239429358006    6.84738941396358
C         1.84472768359330    2.21487443064801    4.83388043555018
C         1.76552059495595    3.72081278828781    4.73442605365807
H         2.19975395069852    4.05348565115570    3.78849091015213
C         2.47423548824740    4.42765463620922    5.89189930752263
H         2.38447968030973    5.50517085844069    5.77258442259614
H         3.52998116264141    4.16931146470570    5.93320696782678
H         2.02378399588092    4.16638302149058    6.84555102104795
C         0.28770850329671    4.12482530596680    4.71104035261029
H        -0.23147547357326    3.60832792708541    3.90521053746064
H         0.20467202316215    5.19715629047691    4.54699048725136
H        -0.20152404933234    3.87608285212884    5.64957604722440
C         4.23836577135794    2.15023273734823    2.42406178499947
C         4.95646147349532    0.80424570973765    2.49616287344975
H         6.02905786675421    0.96764469062802    2.41882771268844
H         4.65588208092481    0.14286440483419    1.68875310367220
H         4.75263058557570    0.32046740439951    3.44818352321667
C         4.79629417497830    3.05103586894338    3.52249810343055
H         4.34159678215353    4.03507814630389    3.48567158715065
H         5.87004787152242    3.16210659844525    3.38841152330947
H         4.61566202696890    2.60995793950020    4.50012683431530
C         4.35967214982052    2.79196115440666    1.03044423070489
H         5.01441499675719    2.20400938064410    0.38878203244568
H         4.78236103519273    3.79181759985860    1.11274185363269
C         2.92372133353491    2.85100674405719    0.45046165137508
C         4.27364918085432    4.59264067262612   -1.73535941376169
H         4.94986816160770    5.14133313944661   -1.08233399325276
H         4.42287929119840    4.94996503674580   -2.75231679218754
H         4.54747508254830    3.54373823513058   -1.70542772075085
C         2.81578939967308    4.84157286804380   -1.32157465917485
C         2.56375104690814    4.29456482569660    0.08550573138819
C         1.72463987263802    6.23215700749724    1.30397705337427
C         2.21250857686519    8.43005707886946    2.16285155057572
H         2.91893160282152    9.14257688104070    2.56196643336431
C         0.89634413582650    8.80815241352823    1.98750452899749
H         0.57788999175654    9.80836923759114    2.24031898530726
C        -0.00974509239339    7.88837328635121    1.49745272683879
H        -1.04242136242243    8.17627179946678    1.37395672751425
C         0.37373223343228    6.59971164010990    1.16158661243177
C        -1.26297026469069    6.04217123280007   -0.67938874858889
H        -1.72754934892364    7.02349663107552   -0.61193436890743
H        -2.02144790779759    5.32193988504612   -0.97771918430510
H        -0.50206828641553    6.07903555539828   -1.45611529078208
C        -1.80478555113522    5.48732364978933    1.69412153502112
H        -1.40281319351643    5.36855163666723    2.69649284881211
H        -2.40301939733927    4.61000506951183    1.46212890853646
H        -2.45333484691914    6.35998013869618    1.68310916192695
C         4.09510285146161    6.78684373964509    2.07424273790113
H         4.24794915473397    5.75855693313455    1.73083092925655
C         4.41126853866885    6.84626352907346    3.57131385428549
H         4.35272373237892    7.86979387670484    3.93271750570231
H         5.41544282378760    6.47328030376703    3.76652151000641
H         3.69879738346229    6.24918276381720    4.13293273890865
C         5.06853367989686    7.69298156488740    1.31499368285818
H         4.90139557799205    7.64938576983551    0.24118796779796
H         6.09344729068978    7.38310298365514    1.51274953150025
H         4.95968279134427    8.72715335661924    1.63045894913540
C         1.84458156041540    4.18457442434342   -2.32031820935604
H         0.87066722980060    4.02691098531194   -1.86270794128876
H         2.21406320286418    3.23588289897554   -2.69245911767427
H         1.71104171187029    4.84176842862323   -3.17728424493489
C         2.58749239841014    6.35573018547697   -1.40161501733224
H         3.21268156879361    6.89287087227392   -0.69706006553685
H         1.55310120913758    6.61505436790818   -1.20341495213374
H         2.83851604335489    6.69888549965835   -2.40433791304362
C         2.72087178167202    1.76834350937572   -0.61636452136037
H         2.91382195487585    0.79342770014333   -0.16919706552589
H         3.39834623285082    1.88421194708917   -1.45598688100114
H         1.69471219097534    1.76851641618209   -0.97123455872742

