54
CSD_code = ORIJAC | q = 0 | S = 0 | Stoichiometry = C20H30ClCuIN | MND = 2
I         7.32475741605138    4.99412396776782    4.33752831352420
Cu        4.82314334497384    2.96800252555238    6.99503005654067
Cl        2.76485411139544    2.84421061777544    6.94319722095084
N         7.41227086367955    3.50504049554281    8.03760763988008
C         6.70302927953304    3.00801764703208    7.06541236961890
C         9.05028180477277    2.85275193343590    6.47764156554336
H         9.74005340649638    2.01049552799287    6.47786053945124
H         9.44835074783735    3.61133836179329    5.80348767071201
C         6.81363048381364    4.04308109950265    9.22185093560859
C         9.51591533012292    4.82420562412567    8.01462023234352
H         9.18170750471513    5.48769357133813    7.22233374343126
H        10.59701186404548    4.73127951022309    7.94484306885957
H         9.26970564730500    5.26742334145958    8.97637441938144
C         8.88627697826090    3.43827550681155    7.89045655525662
C         6.51658184608219    5.41009610247367    9.29030614361173
C         7.64156267340597    2.41887171029637    6.03257466852224
C         6.49485700286151    3.18421478991052   10.28246511539881
C         6.04154874022071    5.92324188424904   10.49025194864104
H         5.81502697601609    6.97455682699527   10.56347773460176
C         9.49872527712379    2.53632718791055    8.96189382945875
H         9.25811893039378    2.91496802774516    9.95198862776473
H        10.58039036876648    2.53131951664287    8.85028114750295
H         9.14437686388552    1.51304584068213    8.87826811031120
C         6.56042463048673    6.30297926208571    8.07466159054854
H         7.08309411780968    5.78931607426153    7.26816812909325
C         7.48264804168712    0.88988486830249    6.07903263905779
H         7.76881125928968    0.50664449749501    7.05520386411521
H         8.11239273823443    0.42336286632660    5.32455612044872
H         6.44711124529193    0.61207363315418    5.89574186671946
C         6.02326776343184    3.74408470768943   11.46294642610597
H         5.78273492335058    3.10192977360283   12.29503635761462
C         5.83505767117536    5.10619354725166   11.58315398180150
H         5.48143727529530    5.52356184621360   12.51367071401126
C         6.51762093300475    1.67850699346073   10.15087627447314
H         6.99506931404087    1.40506610443416    9.20731486082914
C         7.27541311487214    2.85909559024825    4.62089668503447
H         6.25914435621854    2.55367993142516    4.38454027270233
H         7.96784641600277    2.44240599059731    3.89261190959710
C         5.12308381259994    6.53748434107971    7.59835766552152
H         4.63248595413054    5.58589420951101    7.39156408516048
H         5.12940097033314    7.12670926665608    6.68472367141101
H         4.54362554650131    7.06339503925069    8.35285420743271
C         5.07118139236421    1.17533003198912   10.08557686744452
H         4.53396212145983    1.41825116261452   10.99844800617624
H         5.05711352786403    0.09603433682063    9.95054333604533
H         4.54647401372538    1.63434306927844    9.24777705154624
C         7.26213943447406    7.63798205788182    8.32661061922970
H         6.67593416537798    8.27350664645634    8.98439915334074
H         7.39178037178841    8.16082953860383    7.38223557042376
H         8.24182544630236    7.48966592808243    8.77482366915274
C         7.26364089621926    0.98806961784626   11.29485256138495
H         8.26247484510321    1.39843461995572   11.42294719727741
H         7.35360644160360   -0.07554642512144   11.08533440364531
H         6.72711979820192    1.09834925528669   12.23288858573901

