60
CSD_code = ORIQUC | q = 1 | S = 0 | Stoichiometry = C25H26CoN8(1+) | MND = 6
Co        1.89053488447413    1.63227154645745    4.07382496302614
N         3.52981428694084    0.69511136689018    3.80996402059922
N         2.97163388047634    3.22491083124885    3.81494748269189
N         0.37568057107509    2.69764212388805    4.53361970324846
N         0.65190359088238    0.18167353909028    4.16018736230088
N         2.30290112315787    1.51268202134234    5.95676719489611
N         3.11927083397347    1.93392773750132    7.95179361507419
N         1.50398982108272    1.67351703428053    2.19837479152966
N         1.33690477892695    1.00627132063464    0.11513377753604
C         4.05593321011452   -0.52458910718213    3.82854875636037
H         3.45614821073686   -1.41380623402701    3.87223420023315
C         5.45521856083488   -0.46486243827106    3.78602862503887
H         6.11754497501768   -1.30776753616034    3.78039650597774
C         5.79860103795969    0.87094635959449    3.74885752529107
H         6.78184768065742    1.29622464345792    3.71040981379556
C         4.58681672515030    1.58465674969990    3.76862927510639
C         4.24608548027707    2.93311950381267    3.72966617615269
H         5.00840724989814    3.70029553004234    3.64153192660301
C         2.50141991632329    4.50400898441906    3.53090311938585
C         3.21369787233350    5.35407778430461    2.67545121748452
H         4.13039787405006    5.00746681232232    2.22367977222134
C         2.74937149801076    6.61700046481092    2.37070473199619
H         3.32295217966307    7.25189122650418    1.71354559355548
C         1.54578858883594    7.05816659442520    2.89344134037369
H         1.17405288374520    8.04230740350490    2.65753579975820
C         0.81009221416398    6.21343774345249    3.70510706567644
H        -0.13924926130114    6.54743676810070    4.09761685744680
C         1.26419405745652    4.94346872875433    4.03015423862005
C         0.41723012270891    4.08124882987971    4.93150393749753
H         0.82703685852389    4.13401576356234    5.95268650955154
H        -0.59994549239333    4.49145877798897    4.96887202328072
C        -0.72542800601364    2.02023253249532    4.62843576982883
H        -1.66617755825557    2.48943673383861    4.90233018635709
C        -0.62778056227004    0.64624597743143    4.38510669455175
C        -1.53095526486566   -0.42322486685203    4.32575049359086
H        -2.59209268885352   -0.36506053797017    4.46527225020774
C        -0.77409262132639   -1.54830700611495    4.05040891161444
H        -1.12476313032512   -2.55490017847314    3.93598966575020
C         0.55525352811513   -1.13083500541061    3.95408829048090
H         1.40850075720608   -1.75142006615580    3.75573236909090
C         2.90906436011351    2.40816321646142    6.71746677207898
H         3.21255379308673    3.38962825082824    6.40958347072742
C         2.62085588998018    0.66750175559879    7.98399577903563
H         2.66050944180587    0.05702929453171    8.86187656191593
C         2.11867597872351    0.41452656103301    6.74318317554898
H         1.64417491023841   -0.47401808103101    6.38146611452468
C         3.74712743705776    2.62031923950234    9.04688626055217
H         4.12504996555119    3.58262578217793    8.70817049295409
H         4.57697258771378    2.02794662256157    9.43351545765272
H         3.03059944442419    2.78254378951650    9.85392414093931
C         1.80140763330334    0.71721796099282    1.33548977917871
H         2.34491399685825   -0.17684109621569    1.56758254971843
C         0.70827038098232    2.21079989344116    0.19941321454891
H         0.24278344884143    2.67687596921974   -0.64391845827469
C         0.81554933407297    2.61654942673333    1.49584583842025
H         0.44806659730464    3.51688394038597    1.94418564963209
C         1.46573834265918    0.20376684477953   -1.06955745420666
H         2.03659159800459    0.73923353371588   -1.82966215605695
H         0.48015039581458   -0.02946718681249   -1.47425589295389
H         1.97920379629339   -0.72396417454131   -0.82722384971855

