48
CSD_code = ORIWOD | q = 0 | S = 0 | Stoichiometry = C25H15N5NiO2 | MND = 4
Ni        1.72275039434453    0.76823141559728    5.87086526266374
N         2.11962708373885   -0.51267685949260    4.68900514655923
N         2.68497499161305    1.83859537590913    4.70740045416140
N         0.85396704928016   -0.60965972422500    6.74736310496331
O         3.73503684833269    1.83135852432984    2.64444274996161
O         0.51461670038051   -2.89909697963449    6.69255672967909
C         3.10715977716561    1.29105677682003    3.53852075408590
C         1.77779630883505   -1.77152824073355    4.96861640915140
C         2.74380832698615   -0.17328314654041    3.55996282439378
C         3.06253946921771   -1.14399722037262    2.62004431269969
H         3.56756016311765   -0.85452389924704    1.71207970482490
C         0.99041517569683   -1.86696700341826    6.25218214366957
C         2.07247200477573   -2.78991750273670    4.07239735992464
H         1.78995196751358   -3.80282296536099    4.31208328588242
C         2.72104269237048   -2.46386307155521    2.88770762957814
H         2.95965691172006   -3.23770238430005    2.17344379676343
C        -0.06375733605589   -0.24106898882725    7.70056254768688
C        -1.55130543757785   -0.50148745001600    9.57638866469249
H        -1.97366357574521   -1.14711498180940   10.33239805556460
C        -0.46023210925894    1.13029233103314    7.61136404695466
C        -1.92026448577561    0.81876996735789    9.52891449361440
H        -2.62514890657329    1.22430592986725   10.23911922069315
C        -1.38940931250344    1.66605710316494    8.53626399872243
C        -0.28317777360090    3.12724358209796    6.48761725822002
H         0.15037894093631    3.68697982003697    5.66864243174974
C        -1.17505685584573    3.75186910515798    7.37118009608921
H        -1.41735156039551    4.79339519509697    7.22848036084967
C        -1.72888722734617    3.02677659663641    8.39228867318421
H        -2.42586163710296    3.47611494424779    9.08527964838821
C        -0.63125778511089   -1.04317189341954    8.67394352428136
H        -0.36135029273016   -2.08520332967043    8.72638751782801
C         3.12001411427995    3.04216402254044    5.20667882690732
C         3.08608745241613    3.11420935594816    6.63485458135510
C         3.48752388042362    4.29884192728126    7.29900756209452
C         3.93083544003392    5.39024351127890    6.52604669248620
H         4.23222091566194    6.29735975280245    7.02807400925531
C         3.98746814290769    5.28810363656974    5.15941137057083
H         4.34189505285086    6.12495093100251    4.57558820752173
C         3.58993892504608    4.12721474514064    4.48951512046077
H         3.64960764169148    4.06732587768812    3.41513156244708
N         2.68059097739557    2.00134894098011    7.30418831041118
C         3.42227573614129    4.30052540839256    8.70726312174170
H         3.70857145477570    5.18966050104944    9.25078650752331
N         0.07219298444424    1.86699545858926    6.59910748412797
C         2.65194139256675    2.03635689622969    8.61734805099052
H         2.33356430025074    1.13380782709390    9.12341269042977
C         3.00531816454984    3.17171508583155    9.36072683915180
H         2.95022291417467    3.13621509558840   10.43755685503955

