46
CSD_code = ORIXAP | q = 0 | S = 0 | Stoichiometry = C17H27PZr | MND = 13
Zr        3.60082446991410    9.69525476028346    8.18374152251350
P         1.64844903703610    9.69523081172826    6.18894851447884
C         4.62458531932233    9.69510875680838    5.98551634001381
H         4.43125840625314    9.69507631939411    4.91426700990899
C         4.83580380302736   10.98484321722633    6.57167176523188
H         4.65257551415909   11.83733429950292    5.91579183256205
C         5.31105174694311   11.29989760196985    7.86246980865749
H         5.43855252657763   12.36018785113555    8.08160937082886
C         5.80322712040269   10.39493605896390    8.87728229057963
H         6.23520180706252   10.87605763445512    9.75385063632315
C         1.09179202882716    9.69523863804867    9.36479937243575
H         0.04455013779665    9.69517068168920    9.08000334754971
C         1.72022305599266   10.95672626936441    9.43087955297254
C         3.03050816760618   11.20902466797727    9.89504826909044
H         3.38914521287904   10.69682166701669   10.78406355217420
H         3.33509603728260   12.25680993986315    9.86576042160427
C         0.96238188834124   12.15831297823068    8.89505789592335
H         0.81175206439757   12.89113379995567    9.69062540984257
H        -0.01703867047608   11.88341411469895    8.50861056796347
H         1.53214545359861   12.64621645277543    8.09878718174797
C        -0.21448571373459    9.69531852748925    6.26831045180272
H        -0.56786424997625   10.57875863100215    6.79390597943281
H        -0.63351909380377    9.69525755309921    5.26206350329209
C         1.75683139609574   11.11556537804660    5.00370206998534
H         1.07190803398303   10.96488806011854    4.16904173046217
H         2.76816470364095   11.22555968314690    4.62384291487283
H         1.48152211794709   12.03017065929507    5.52881238088417
C         4.83568157726449    8.40540822018616    6.57177610813168
H         4.65239745009823    7.55288325941225    5.91595386205164
C         5.31089140687342    8.09040117860159    7.86260708970589
H         5.43831777063762    7.03011453832025    8.08180659506984
C         5.80312676532915    8.99538909583709    8.87736359188176
H         6.23509362380159    8.51429858699364    9.75395297158413
C         1.72036875262101    8.43381034030887    9.43093868245722
C         3.03058398510537    8.18168911456264    9.89536058849707
H         3.38905706234402    8.69405781110188   10.78434222230423
H         3.33532617811196    7.13394926400941    9.86618541722492
C         0.96285851551863    7.23220231571253    8.89476665770705
H         0.81305651386923    6.49885719808600    9.68963535837837
H        -0.01669683523315    7.50674495442058    8.50913512320061
H         1.53219647811904    6.74519961790802    8.09797770730140
H        -0.56793223184298    8.81200083888071    6.79406882752100
C         1.75664399722047    8.27492295272665    5.00365199998787
H         1.07194873700922    8.42586058440979    4.16885217144641
H         2.76802433991428    8.16461305716267    4.62401116495647
H         1.48091359214153    7.36038205807298    5.52865016745824

