66
CSD_code = ORIYIZ | q = 0 | S = 0 | Stoichiometry = C26H30Cl2N2O4RuS | MND = 9
Ru        5.71921136263178    6.90233625526333    5.61552269904852
Cl        5.26291726855587    6.33884137031678    7.85679907786872
Cl        4.41168931852435    8.84005917841514    5.91847752892799
S         3.72454136485769    5.71679994574417    4.87525760819899
O         0.12642299640242    6.89244778009683    7.35971634612127
O         0.67287824663306    8.33852415029368    9.66528442411803
O        -1.33323701567160    5.82326445820042    4.17382333819685
O        -0.69391586939508    4.77165407592644    2.30006695155541
N         2.36212247793144    6.76580837728452    6.88742092406353
H         3.31076498398406    6.95957875005060    7.24260485302208
N         1.12515795253895    5.77657592183930    5.20047423406458
H         0.28668134528436    6.04046456364172    5.73860655990364
C         2.29903159363584    6.11631594026936    5.70386362204844
C         1.27396138956185    7.18077454019911    7.64382768317645
C         1.65001418357052    7.98580708644516    8.79617027597085
C         2.84948128121061    8.53756237850583    9.19648286589026
H         3.80056985472442    8.45315638996164    8.71141270493341
C         2.57103555496504    9.25607512833949   10.37227112276186
H         3.26436777147285    9.81643446678296   10.96455124561214
C         1.23284980771152    9.09408040507854   10.60430466882755
H         0.59624863564695    9.46176953312140   11.38588066338374
C         0.94145781281345    5.04735963804270    3.97820235418779
H         1.64175489951850    5.41582987055746    3.21892003623753
C         1.17842599657848    3.53057584922491    4.18248930789217
H         1.06721625351659    3.03589338150498    3.21756998371669
H         2.20208515576361    3.39904289137860    4.53495857460742
C         0.19581982139326    2.98542304856339    5.18040267107358
C         0.43993680398420    3.10404862738800    6.54284697851707
H         1.37042933961901    3.53378158954511    6.88474396810894
C        -0.49645968081457    2.67073010379892    7.46390861938482
H        -0.29742792525015    2.77492836821219    8.51986268647589
C        -1.68623407428703    2.10968681918277    7.03321227049745
H        -2.41978958058474    1.77575339343087    7.75167032203492
C        -1.93142251144425    1.97440930410400    5.67766254904029
H        -2.85511092317705    1.53012609164404    5.33636153697261
C        -0.99574077957609    2.41166948147423    4.75733553893708
H        -1.18890897701457    2.30172793558587    3.69909059717576
C        -0.49343763384408    5.27516534602553    3.51579905811079
C        -2.01832826761482    4.88967526533693    1.78981838418846
H        -2.03047741201155    4.34823432032262    0.84766288175399
H        -2.26920598938507    5.93988324804030    1.63177764500978
H        -2.73249371525190    4.46026519638954    2.49480251931564
C         6.79957332452195    7.54090314381390    3.71408800269359
C         7.36601299686735    8.22726502475665    4.81576873485236
H         7.43877381829709    9.31037697774258    4.78476525163442
C         7.88322153565808    7.53495410305021    5.92551791447105
H         8.36023734635207    8.08279072451054    6.73181673369012
C         7.87866419675290    6.11233382954946    5.95632802546045
C         7.30462380040133    5.42210341407781    4.87736502582544
H         7.32459577919620    4.33851093003860    4.85663458845519
C         6.74145232741112    6.13256967334291    3.78813324952521
H         6.33614188985273    5.56744034295714    2.95546164576772
C         6.30201518728822    8.29082150617709    2.50197867197146
H         6.44461485210208    9.36181409217863    2.68474002770860
C         7.11071272053189    7.90016732341392    1.26175074114747
H         8.17320509629720    8.07011538728910    1.42615620414366
H         6.79381150434126    8.49873948970451    0.41135998462060
H         6.96267588268370    6.85119203871244    1.01499941045553
C         4.80663801423505    8.04412815584092    2.29046135628408
H         4.61011617765285    6.99678053033124    2.07118417251581
H         4.44065075942518    8.64711831807241    1.46324239329043
H         4.25748057823566    8.31889700603875    3.19042066192895
C         8.49604531203494    5.38661732041514    7.11039169666471
H         7.86560485016289    5.49498539736401    7.99535982903925
H         9.47402169462519    5.80522104403568    7.34434942467411
H         8.59892723736721    4.32541376106282    6.89550837225411

