50
CSD_code = ORODEF | q = 0 | S = 0 | Stoichiometry = C17H27BrNNiO2P | MND = 4
Ni        3.21252329466107    2.03301841961390    2.88344634327400
Br        5.16775559909998    1.15960270856035    2.29200834306426
P         2.19789030898876    1.08462492044953    1.31218340157848
O         0.64589532097414    1.60093902685394    1.32336003714595
O         5.91057270584322    5.08676965670721    5.40237755290416
N         3.77131340420745    3.35217593536088    4.45991192995641
C         1.51283779346454    2.69665028451206    3.23248559372146
C         0.42104190012768    2.44827696247890    2.40094587654545
C        -0.81735087041928    3.00890663584895    2.64663447667533
H        -1.64815735680581    2.79972923457072    1.99077727959714
C        -0.96074429962121    3.83926505149992    3.75018500695046
H        -1.92151345407896    4.28800953660804    3.95260824096193
C         0.10688341690490    4.09504119477310    4.59194671368865
H        -0.02131157248839    4.73877381309369    5.45078227237785
C         1.34826776979660    3.52224013949638    4.33962563280006
C         2.55170611352819    3.70197884370302    5.22376389429577
H         2.59242231400664    4.71941911383270    5.62872690325850
H         2.46926970181101    3.01124315478384    6.07134942129156
C         4.27133996892909    4.50958866184837    3.68846981915159
H         3.44999237376555    4.93960239407592    3.10647930578306
H         5.04920521425927    4.14751449313976    3.00597159231155
C         4.89449450689049    5.59829784918702    4.57185785143790
H         5.36883066973895    6.35185622559631    3.94032098367962
H         4.12631866252563    6.09676078649522    5.18508026666076
C         5.42679869582641    4.02833541189009    6.20029706011838
H         4.66490672032148    4.40348226510605    6.90268862075048
H         6.28268607386602    3.66674040129853    6.77239837096167
C         4.86393710719385    2.89863943545950    5.33512467772618
H         5.67169902549535    2.52030547378183    4.70131025273866
H         4.50775138710107    2.08130124025593    5.96686224559147
C         1.94212120626250   -0.74914116571844    1.37141584638794
H         1.03722786987480   -0.93985139163665    0.78049101962058
C         1.67985909399380   -1.08451413649678    2.83802203423621
H         1.50496366991559   -2.15040497356016    2.97125174472853
H         0.80940463320160   -0.54145469592488    3.20786756123216
H         2.54703075714975   -0.80013296431839    3.44071358972934
C         3.11980115245541   -1.53852187267252    0.81978076732654
H         4.03389021757435   -1.29180507133423    1.35506173861824
H         3.27591030101525   -1.33558450609830   -0.23703939255433
H         2.93333687255159   -2.60480805413043    0.93750394887712
C         2.73902036759206    1.52891574274807   -0.40174965318443
H         3.70127286592432    1.03495260495634   -0.56898589012184
C         2.94686994617611    3.04115970199149   -0.41291922678592
H         3.35508592841113    3.37189118902047   -1.36565168411099
H         3.64584708363248    3.32832903565921    0.37813859628808
H         2.00145149451648    3.55607500082626   -0.24183261040836
C         1.71782798679066    1.08385475390779   -1.43878148681376
H         0.74138901587264    1.50748265754975   -1.21234964115059
H         1.62740069101765    0.00052196078332   -1.46722885559947
H         2.02112635015549    1.42734691356203   -2.42638837331267

