67
CSD_code = OROGUY | q = 0 | S = 0 | Stoichiometry = C32H28ClIrN4O | MND = 6
Ir       -0.11718477483274    8.00644084636134    2.61841582172458
Cl       -0.05565144608135    5.54001805206628    1.84034762874785
O        -1.25007659402952    7.81777479665696    0.42597857033770
H        -0.92907087446226    6.89298551258112    0.52325044598478
H        -2.19865673799163    7.77251508978143    0.29477637553259
N        -1.28794406568346    7.10188135064027    4.02246351755222
N        -1.10343193920467    5.93836178411346    6.07994622296680
N         1.09670201681678    8.95296776483842    1.28308216087425
N         1.18106672945015   10.95998410466897    0.02763751860151
C         1.16021688613686    8.05826094572039    4.16097983403155
C         2.39923513345902    8.64045832726624    4.24270689915040
H         2.76089345628328    9.29106931250691    3.45741718197576
C         3.24722069494271    8.42537484434513    5.35245347346850
C         4.52737230434370    9.01279126958477    5.43332471649357
H         4.85529916412868    9.65220899688634    4.62589202544647
C         5.33972233122342    8.77880278266928    6.50743259202229
H         6.31931069347644    9.23185273048301    6.55818523123341
C         4.91240083019144    7.94734488793323    7.55566872710385
H         5.56938018595696    7.77385614626713    8.39536646239852
C         3.67710870899014    7.36561673355126    7.51111369106366
H         3.33949426374143    6.72539815136689    8.31341133196629
C         2.81391857210424    7.58649331276431    6.41605472638539
C         1.53505259052612    7.01124571719273    6.34259894669215
H         1.17394968826158    6.37867513112749    7.13957635909825
C         0.73097480651654    7.24882713732468    5.25151545920335
C        -0.61180309237265    6.71581027424449    5.13425962869836
C        -2.34436612026041    5.49027697840344    5.95896412338743
C        -3.12650557972453    5.87979351928122    4.87607237887261
H        -4.14779901552728    5.54785624910903    4.77680397360099
C        -2.55781411216040    6.70051936740193    3.91180550196382
C        -2.85230203770531    4.57269486683770    7.01946733071907
H        -2.92765800223102    3.56085044235733    6.62173595528222
H        -3.84202495205912    4.88006658606072    7.35151420450462
H        -2.16369945447533    4.56860280937774    7.85918079879760
C        -3.35134419055759    7.14288326088371    2.72828397986364
H        -3.03975708035653    8.14115258979958    2.42439181821070
H        -4.41434303248314    7.14405755084977    2.95773575928290
H        -3.17735558653434    6.44216249762126    1.91127930918824
C        -0.71206324222745    9.88869052753243    2.95713077473173
C        -1.58418465275710   10.37886547579907    3.89395432583110
H        -1.92094538181182    9.75841012881671    4.71445856848504
C        -2.06975932950923   11.70506659082647    3.83704770612023
C        -2.96907998689706   12.21017151090236    4.79910074350555
H        -3.28112966607841   11.56216171771439    5.60612528528292
C        -3.43791555727251   13.49157581653522    4.71646186916935
H        -4.12695997161250   13.86849736062821    5.45855424782979
C        -3.03005561697574   14.33210322199272    3.66794208978868
H        -3.41160665135600   15.34157875369248    3.61957209677349
C        -2.15775098185662   13.87535145915095    2.72071805400623
H        -1.83682314075200   14.51604828748975    1.91181877943867
C        -1.65449162925966   12.55781139444817    2.77762793972742
C        -0.74767801318469   12.06008340261913    1.82685070977162
H        -0.40689483432955   12.68859397132784    1.01770182514890
C        -0.28535550456383   10.76806787772177    1.92135584947159
C         0.70052976214893   10.21859762143985    1.00836313102060
C         2.13199828926362   10.45244295492963   -0.74437040329066
C         2.65738217218310    9.19378544929823   -0.47525515462636
H         3.46774656880528    8.79291227182056   -1.06300160727471
C         2.11480423255176    8.45357215522029    0.56962404977153
C         2.61915519884461   11.29201313001739   -1.87788407555865
H         2.37881097998024   10.81128750622850   -2.82513118961167
H         3.69981828415573   11.41023252512307   -1.82537076736020
H         2.14276930417355   12.26691460428561   -1.84123037389061
C         2.66554757111159    7.12351439962232    0.92912196491074
H         2.97290091346567    7.12165546779500    1.97464071300312
H         3.50927958711557    6.86357381377201    0.29622943947263
H         1.89112092882309    6.36188788232687    0.83475272592360

