93
CSD_code = OROJUB | q = 0 | S = 0 | Stoichiometry = C48H36N4NiO4 | MND = 4
Ni        0.00001530143600   -4.41859020072951   10.31573972054169
N         1.72988783413995   -3.52409287610881   10.36829720948128
C         1.96625191141997   -2.18361039135280   10.26755969968769
C         2.93466664423676   -4.08668284945298   10.69536519006295
C         3.32886579338279   -1.88872981740925   10.59590906944782
C         1.50812296851207    0.16187530937513    9.67028574857781
C         2.41275622764642    0.38549929553826    8.63206014844395
C         1.03001647061779   -1.20384345115676    9.94462510462817
C         3.92188835227597   -3.06727622990452   10.89429940518422
O         2.95002022023471    3.95522454263844    8.76104382057848
C         1.09323750259977    1.24780579216145   10.43074801003636
C         1.55156989251522    2.52682289653558   10.16543639593896
C         2.44009518473612    2.74357515802379    9.11812840300586
C         2.86750627969598    1.65480827520174    8.35501353506674
C         2.54453915419888    5.09417492219025    9.47921741799169
H         1.21091629541267    3.34223528028151   10.78431461456002
H         2.74570969311688   -0.44900244964998    8.03280975615877
H         3.75039987685819   -0.90289257581386   10.62438792005594
H         0.41662313631948    1.08958157954216   11.25760525507694
H         4.92888172963267   -3.24236397598955   11.21780898865368
H         3.55924436132980    1.83617893697820    7.54766612448276
H         2.83933749100591    5.03287450020165   10.53196023448085
H         3.05551332548871    5.93473114871130    9.01204126442752
H         1.46251722061626    5.24786028881844    9.41300922396838
N         0.89446301398796   -6.14860060862380   10.26882887293714
N        -0.89444809175958   -2.68859192276367   10.26882005483240
N        -1.72988235237570   -5.31308267782741   10.36828429604970
C         2.23489067645756   -6.38498186791211   10.37027734567154
C        -2.23487238678105   -2.45221096132709   10.37026976442425
C        -1.96626153157895   -6.65358355361788   10.26755888588536
C         0.33193577912671   -7.35354447300378    9.94249502831992
C        -0.33191789383029   -1.48365856664192    9.94249596547038
C        -2.93467428431715   -4.75049972158567   10.69535760283935
C         2.52989886335399   -7.74750186787588   10.04163085464610
C        -2.52987476210646   -1.08968249097648   10.04163815730208
C        -3.32887774528992   -6.94845887709741   10.59590575042197
C         4.58041570909323   -5.92668215898900   10.96723294846912
C        -4.58041945215262   -2.91051548121594   10.96723293341452
C        -1.50812360673599   -8.99910515394903    9.67028862723500
C         4.80409589795914   -6.83135937945281   12.00540008243374
C        -4.80409875889732   -2.00584582179075   12.00541641393143
C        -2.41275468379181   -9.22272183836022    8.63204937082483
C         3.21461050236198   -5.44863102317841   10.69308905708724
C        -3.21460605648610   -3.38855856519304   10.69308386870300
C        -1.03001479338128   -7.63336682895789    9.94463083957175
C         1.35138680902968   -8.34061420034003    9.74324111133003
C        -1.35136131696725   -0.49659394573516    9.74323841961198
C        -3.92189526500494   -5.76990521560052   10.89429128891679
O         8.37380798620033   -7.36860026241123   11.87634146022474
O        -8.37381614095418   -1.46860012297066   11.87635020451120
O        -2.95002108765649  -12.79242117747163    8.76103835196990
C         5.66633294226140   -5.51179210810334   10.20671969638666
C        -5.66634027462883   -3.32540502506633   10.20671298000204
C        -1.09324728085499  -10.08503889846517   10.43076503796371
C         6.94536750475203   -5.97012588019426   10.47198559880632
C        -6.94537726677358   -2.86706472429418   10.47197966519926
C        -1.55157824469986  -11.36404672320041   10.16544255976485
C         7.16215317571581   -6.85867137852580   11.51927077950884
C        -7.16216341746317   -1.97852457559010   11.51927811294194
C        -2.44009574423694  -11.58078429368121    9.11812326479240
C         6.07340907313017   -7.28610238876837   12.28239880334706
C        -6.07341609038910   -1.55110252427619   12.28241642847113
C        -2.86751320391300  -10.49202022167734    8.35501193823085
C         9.51276798814815   -6.96313074926979   11.15817861796152
C        -9.51277499666505   -1.87406236451050   11.15818040234366
C        -2.54453825803816  -13.93136852802197    9.47921368566767
H         7.76076701908486   -5.62947148075185    9.85308858843739
H        -7.76077317379581   -3.20772625850918    9.85309189074757
H        -1.21092731697066  -12.17945688279858   10.78431885534891
H         3.96961016884595   -7.16436297719324   12.60465000070121
H        -3.96961667893442   -1.67284252594793   12.60464719003496
H        -2.74571202924156   -8.38821699624094    8.03281247449813
H         3.51577325719733   -8.16892102431681   10.01296698921650
H        -3.51575102843451   -0.66825496391882   10.01297909420934
H        -3.75040721515573   -7.93429413030368   10.62439661680908
H         5.50808691427051   -4.83521409336397    9.37983807746621
H        -5.50809068868805   -4.00198611162207    9.37985080301540
H        -0.41663124408917   -9.92681717372065   11.25760779955992
H         1.17634708525771   -9.34753670807232    9.41952158709848
H        -1.17631821603768    0.51032740190879    9.41951855273452
H        -4.92887912786836   -5.59481576749310   11.21779823650013
H         6.25480333057379   -7.97784386822822   13.08973680514437
H        -6.25480308079281   -0.85934961834112   13.08973275211982
H        -3.55925255325946  -10.67338096701740    7.54767531822598
H         9.45146307133537   -7.25792366136177   10.10543577573573
H        -9.45146249168154   -1.57926841092541   10.10543916643121
H        -2.83933802941574  -13.87007232795352   10.53195682215937
H        10.35331343733685   -7.47412563168007   11.62535241482823
H       -10.35332762166272   -1.36307457741359   11.62535139255999
H        -3.05551142711756  -14.77192415229999    9.01203635115087
H         9.66647783922530   -5.88111431442801   11.22440036141409
H        -9.66647767754648   -2.95608370586100   11.22439371226997
H        -1.46251632380650  -14.08505303220782    9.41300498266317

