64
CSD_code = ORONUF | q = 0 | S = 0 | Stoichiometry = C22H30MoN3O5PSi2 | MND = 6
C         3.26443327561999    5.68644149661962    3.25168548772862
C         3.54498354007766    3.50672809140135    3.29469762422233
C         1.49955335589074    5.22250205649826    0.82417824156645
H         0.85016781936335    6.10071324344325    0.74825735527644
C         3.49896168399086    7.08066387271435    3.55397710674272
C         2.67264985186908    8.05982846164575    3.00227120788316
H         1.87239487268757    7.75764126000310    2.33764729298219
C         2.88728216731369    9.39339973955745    3.28654540486172
H         2.24321837356908   10.14705912891926    2.85895789537543
C         3.92478726966559    9.76328913254117    4.12898019277259
H         4.08690949279612   10.80624118878924    4.35692576912373
C         4.75252335009861    8.79712916703536    4.68048514819540
H         5.55878221530619    9.08882275337211    5.33710472916576
C         4.54630597361390    7.46187514989615    4.39543380069631
H         5.17563499885416    6.69467905983173    4.81899101467480
C         5.56675132131113    2.51036674079346    4.20300261123876
H         5.80622975320141    3.55658594335133    4.37077424274790
H         6.31610587727269    2.06360932478636    3.54369222230086
H         5.57547652717463    1.97605529948474    5.15647087270602
C         3.75405609029492    1.10348937590099    3.33052532344303
H         4.36108186441945    0.60908476217695    2.56680509170292
H         2.72843560548372    1.19000517630167    2.97995597015288
H         3.77871115747129    0.50195702729757    4.24199325411540
C         4.50992346115912    4.30977403618565    0.23547900585342
H         4.11398449024517    3.31408541728113    0.39746913689781
H         5.06412254103862    4.59004978571454    1.12671531454430
H         5.21756953757597    4.25888379845578   -0.58680028918486
C         2.71816322963877    5.58499121535442   -1.99969293215691
H         2.00088040392674    6.36465690548174   -2.23490216856125
H         2.31035785115840    4.64640457495930   -2.35443087861129
H         3.61497331443756    5.79137182240151   -2.57441759142335
C         3.86824303810837    7.32148267359429    0.16570043670428
H         4.39817885285071    7.39885718049709    1.10903736047466
H         3.11182648403930    8.09989316703633    0.14537506962384
H         4.57966548571761    7.54623705822724   -0.62372617768903
C         1.61741786906842    2.33831928353254   -0.52791573581273
H         2.19004702030038    1.87885843075004    0.27131746758541
H         2.31428769515616    2.69614144170864   -1.27625185843203
H         1.01386821090971    1.56087990769078   -0.98606149017109
C        -0.59164241685621    2.80423473033473    1.46067218806354
H        -1.40260701754639    3.41428563406559    1.84485799895229
H         0.02337593266936    2.48804172746572    2.29648817584330
H        -1.03713506524131    1.91495701994419    1.02304895349928
C        -0.68283232668608    4.39938930493769   -1.17296179157700
H        -1.24108234391611    3.59239149039794   -1.63390180073977
H        -0.14503848429324    4.91693814882535   -1.95853106508121
H        -1.40388422455564    5.09405327545504   -0.75300973316172
C        -1.11287493884144    5.62269669531878    5.91981433697608
C        -0.02653837448383    3.42796232045844    4.65246271503865
C        -1.38102741204569    5.57898607297998    3.15257426927965
C         0.21420470976365    7.33646300751681    4.40614425777102
C         1.64486175549298    5.29231662798764    5.64009047374711
Mo        0.10864057492480    5.37777025938033    4.41929676936630
N         4.07141059713385    4.74725950516764    3.62388151958747
N         2.36935035348628    3.43153610568353    2.71422465413556
N         4.26212762859628    2.42342692406824    3.60061712522193
O        -1.80915004259412    5.77217112925120    6.81251472615149
O        -0.05956181709550    2.32241254183542    4.92724210425171
O        -2.22408652117201    5.81316296854811    2.41756258018322
O         0.15904885108710    8.46904627457534    4.54535957919434
O         2.52918018401703    5.25503829511101    6.36144817460971
P         1.70864918884871    4.94690729878803    2.61607533225448
Si        3.13665251615942    5.57966585241042   -0.13541683621015
Si        0.47991277013299    3.70363263820631    0.17179276322780

