68
CSD_code = OROROD | q = 0 | S = 0 | Stoichiometry = C25H35CrNO5Si | MND = 9
Cr        1.77987233244822   11.63826862073575    3.48626476507485
Si       -0.45845566701164    8.20415912136429    3.80629732225460
O         1.20268915605747   14.84947996170175    4.18158521446928
O        -0.91314448222043    9.74580205335770    4.18322716557520
O         2.76034956708297   10.96650422135582    0.75871898706274
O         3.46636583524915    9.28956772644248    4.16833568492973
O         4.50721032791332   12.81641567520614    3.59731488135280
N        -4.82533068024788   14.59645341971123    0.68463097895501
C         0.72832206464673   13.57687302437527    4.08178765993409
C         0.09041162183467   13.05885571543511    2.95650254791569
H        -0.09031982386225   13.67819859748917    2.08742206343662
C        -0.42445516232484   11.73987991594568    2.95711560828201
C        -0.31266277050974   10.95705527766289    4.11518064623429
C         0.36847734306116   11.46747177335137    5.25563319213063
C         0.43147011006274   10.60858158188062    6.49191369141313
H         1.18235417033542    9.83084443970523    6.33191229381707
H        -0.53106014815880   10.10645898855605    6.62264082379100
C         0.79708696500107   11.40204897535833    7.74197913594906
H         1.03058738506296   10.71129158929286    8.55334090526843
H        -0.04911959465856   12.01721112352487    8.05825507810909
C         1.98868959799333   12.30169181814925    7.43886247575385
H         2.79776511574344   11.70600980919514    7.00943248308575
H         2.35685331930480   12.77386078370930    8.35048704072614
C         1.56019359456110   13.37071339124917    6.44211049454300
H         2.42027840745338   13.95579714726654    6.10926819026073
H         0.86458385635384   14.06940357643308    6.92113519924494
C         0.88893354737913   12.76552676695194    5.23973896664353
C         1.42465888299940   15.57063049206176    2.98829801454561
H         1.97032643858141   16.46435275811306    3.28491200972446
H         2.03060961071043   14.98700759731194    2.28722790150502
H         0.48448049422697   15.86750415881669    2.51283011325962
C        -1.23817762120871   11.28822014157515    1.77658903549127
H        -1.28481305920672   10.20060902984891    1.75220627461879
H        -0.76865172422775   11.63419632449249    0.85226991778092
C        -2.66268246901042   11.84960502301262    1.86705515378909
H        -2.62550663352766   12.94155855166191    1.91344745458671
H        -3.12660904864383   11.49571170884371    2.79197718183558
C        -3.51030464393876   11.42548399248158    0.67080744341231
H        -3.58571283686681   10.33686005098302    0.63917051135071
H        -3.02924344460897   11.75821509107925   -0.25197000246368
C        -4.92503554343652   12.01540598861497    0.74460597276308
H        -5.41771025367830   11.70495591938602    1.67070933740537
H        -5.52687543240766   11.66960460841037   -0.10032291968614
C        -4.88311831248575   13.45499850886311    0.71147592564270
C         0.64355296748663    7.40757592539352    5.14206866123726
H         1.65203597805406    7.80836204620363    5.11260008645502
H         0.25462815197517    7.54388395977425    6.14683812294879
H         0.72621684981206    6.33910069312915    4.97061627263762
C         0.47875230961648    8.12425676294658    2.15084255527720
H         1.17536808946245    8.95818252872144    2.07474218568280
H         1.06217205015386    7.21257344179056    2.08245183717321
H        -0.17041773107403    8.15341225148777    1.28052130066428
C        -2.17449767282942    7.32995725040742    3.75105373904272
C        -3.11222024385192    7.98388152480830    2.73352655579353
H        -4.07337852751344    7.46981304003966    2.71914572586275
H        -3.28706511551395    9.02417342668411    2.99468478534289
H        -2.69099528546862    7.93754275810103    1.73135474115348
C        -2.84718168524438    7.37991033085946    5.12502037360260
H        -3.82269442349494    6.89527616509095    5.08933001138776
H        -2.24269062113065    6.86809964262649    5.86929365426503
H        -2.98901964673053    8.40963033400733    5.44444576311862
C        -1.97630852120180    5.86707753731898    3.35651315558337
H        -2.93451408174716    5.35029542857864    3.31308094536623
H        -1.50263677132102    5.78979400047942    2.38136615342076
H        -1.34897326259815    5.35387074472858    4.07992898658118
C         2.33478294262298   11.22651116548522    1.80490179822894
C         2.77187249305221   10.18408850296449    3.91407739679923
C         3.43143136566607   12.39078549740854    3.56531237059781

