61
CSD_code = OROSAQ | q = 0 | S = 0 | Stoichiometry = C22H31CrNO5Si | MND = 9
Cr        1.53597414499232   12.25878259488314    0.76048852990981
Si        0.53744717986449    8.50610600471044    2.49107484533182
O         0.83957310760597   12.86888411154660    3.58567357957504
O         4.29182719138062   12.24308258977671    1.88292573652229
O         2.09372834498419   15.17476713860428    0.92780653906794
O        -0.20945798455210    9.53130903939989    1.42778105903119
O         1.62444424211021   12.88259368837842   -2.56764404067455
N        -4.40004173101014    7.41742405694255    0.43940974597244
C         1.09449064881876   12.59433631620476    2.48975335299468
C         3.23019563338000   12.20807553631640    1.42509776761859
C         1.86915421296402   14.04184289365217    0.82363951041825
C         0.27673757051088   10.37441864188324    0.50541746072051
C        -0.49673386027050   11.51654844502742    0.16640010751979
C        -0.04341125743319   12.37193669501041   -0.84408288071246
H        -0.68495271466553   13.18514096014790   -1.16061921185725
C         1.17167057996002   12.12960281402604   -1.52240143911819
C         1.97038949805740   11.03915225429103   -1.13808227093319
C         1.50092414529603   10.16792150245407   -0.13007164498833
H         2.06267632600575    9.27361449789654    0.10303497820194
C         2.19593742547354    9.22084227214961    3.09479662664029
H         3.01725556672028    8.98307878738713    2.42520612609735
H         2.14400396793863   10.30566009773470    3.16757738431852
H         2.46631437068095    8.83631466015231    4.07236073311066
C         0.79358970373386    6.82390120694162    1.62418135520241
H         1.49819728660088    6.88715865156373    0.79910020099722
H         1.17546948652406    6.08159644318681    2.31649211908381
H        -0.14211639022197    6.44655739880416    1.22099283554054
C        -0.75795480366610    8.40727807785514    3.90428685975911
C        -2.14796304702517    8.07979248447529    3.35363433759615
H        -2.87844434719176    8.04632748982087    4.16148226926258
H        -2.46401359426399    8.83239073481779    2.63731278380965
H        -2.15529868397917    7.11570334048417    2.85199617558725
C        -0.82832524559537    9.73862156684441    4.65820861976779
H        -1.58188716417451    9.68921634413933    5.44378456079072
H         0.12683430550140    9.97778696511683    5.11801894014132
H        -1.08931066238116   10.55386542975842    3.98762207993246
C        -0.35422380451494    7.31063065233197    4.88920818592405
H        -1.06742736945999    7.25708450761357    5.71067947265374
H        -0.32992428639034    6.34110491735517    4.39859572334487
H         0.62976965922567    7.50628649380332    5.30768698686383
C        -1.84994890799792   11.69737734756422    0.79414266924582
H        -2.17708021530015   12.73507248282703    0.69525277907788
H        -1.78351572080270   11.45962877629764    1.85834383563941
C        -2.87337202276881   10.75988333511807    0.14090610006814
H        -2.49763778704660    9.73521027150118    0.19543822292843
H        -2.98316531858320   11.02086975630449   -0.91613973497923
C        -4.23113326146894   10.83346723508384    0.83422640572195
H        -4.63462004080591   11.84573481420351    0.75711926246648
H        -4.11031883866615   10.60046361400269    1.89460894836534
C        -5.23490700527970    9.85266844490596    0.21367456537523
H        -5.37340566969403   10.07214499970494   -0.84938542420224
H        -6.20458324742387    9.93448954634493    0.71268081678809
C        -4.77607210980214    8.49194719530067    0.33724669029813
C         1.10520870572566   14.18473160303222   -2.73029098160332
H         1.73480461295978   14.65720098025076   -3.48213379323243
H         0.07196177653377   14.16783439698327   -3.09247031972705
H         1.16414970476803   14.75186893037935   -1.79623638291685
C         3.24441087346952   10.73921496388496   -1.87027500312909
H         3.03846540909249   10.14325879634478   -2.76117230641403
H         3.71878180308031   11.66389242260415   -2.19039452136031
H         3.93155960847708   10.18600178387467   -1.23416792943198

