70
CSD_code = OROSEU | q = 0 | S = 0 | Stoichiometry = C25H37CrNO5Si | MND = 9
Cr       -0.12577406963033    2.64256219820283    9.70319371075736
Si        1.84721475561408    6.49167391183537   12.02612189621565
O         2.19671886620324    1.40318311995412   11.08685892908992
O        -1.39857950510953    0.15339012515593   10.71402453292170
O         0.69448599059820    0.63858516423684    7.66599731618930
O         1.26332915807252    5.07217084750037   11.40755530356807
O        -2.65839582697954    3.69595375621925    7.74344497623243
N         7.33974304756482    3.86139584656319    6.63517372930482
C         0.55532428795559    4.76141891793567    9.13111432494606
C         0.29855272262807    4.72106005147526   10.52285838995741
C        -0.95862882676142    4.30012760484157   11.00198034304918
C        -1.95572096662554    3.91386539451672   10.08325298408340
H        -2.93558368246351    3.65981286144752   10.46931194901999
C        -1.73160895650054    3.97775399230762    8.70299944451641
C        -0.45212127287989    4.34904542708400    8.24935770329451
H        -0.30029335422644    4.42477701999101    7.17895325050982
C         1.30422798610502    1.92074759458652   10.56239916761862
C        -0.92623063690631    1.14337072062530   10.34194055508307
C         0.36561977774770    1.44792002325299    8.42650639198465
C         1.88832328328276    5.18183167759937    8.57918468219746
H         2.42572608795517    5.77103783511698    9.32152055851423
H         1.73816734331201    5.80224999956161    7.69055727346343
C         2.74451323051192    3.96544876158727    8.20533856849166
H         2.24113005694183    3.38988262565163    7.42513233229867
H         2.83665720951099    3.31847046336507    9.08037181671104
C         4.13392892454421    4.37726089726864    7.72904466680851
H         4.62814323526404    4.96978763095047    8.50239787376371
H         4.05548327688024    4.99700725756185    6.83222490145082
C         4.98776928501139    3.14118194463089    7.42107013671381
H         4.51839932206184    2.53994779485160    6.63732709493880
H         5.08547711372030    2.51943426095233    8.31552690675638
C         6.30272471708785    3.52689367949233    6.98131647978969
C        -1.25856468272659    4.28118443530982   12.47178927746708
H        -1.67123167104106    5.23973392625629   12.79414468705884
H        -1.98348290722437    3.50294606111826   12.70183905213416
H        -0.35037234586738    4.09155975867745   13.03718870131728
C        -3.76167354847697    2.89401526594557    8.10914454660523
H        -4.25115616349951    2.62574405025294    7.17497236735334
H        -3.42957692030695    1.98592883844653    8.62382241424298
H        -4.47026240602397    3.44176475404805    8.73882082664646
C         1.03566725597809    7.92552181190732   11.02281419138707
H         1.10329432773931    7.65419938122623    9.96203584433611
C        -0.45333124266368    8.06552901902292   11.34267178753032
H        -0.90739168266471    8.83249527280687   10.71609368013178
H        -0.97683629968098    7.12911582576009   11.16005269454627
H        -0.60361762777850    8.34738388574158   12.38175128490788
C         1.73436902539965    9.27459973708453   11.17761522651307
H         1.24278607407469   10.02891659797612   10.56453134474454
H         1.70852072647147    9.61087086173349   12.21027355527355
H         2.77272049041417    9.20893825978013   10.86438837277997
C         3.74138832884313    6.39665147149815   11.69658886210585
H         3.92411768243590    6.75183566946859   10.67387984893598
C         4.26968184586060    4.96284945776089   11.78091589416614
H         5.30555058710947    4.91947333565934   11.44699186199265
H         4.23026257200566    4.60240919145396   12.80462593242640
H         3.67805488190577    4.28818515232394   11.16965134559082
C         4.56427114024649    7.29498620555669   12.61826038364644
H         5.61210730601840    7.27987780462012   12.32149867947125
H         4.21566569273652    8.32360966508195   12.58410473239585
H         4.50604512213667    6.94529518431883   13.64528804629765
C         1.31992587465346    6.48160298346847   13.87682754450319
H         0.23442085400162    6.33399863533517   13.90584268166138
C         1.94986529516833    5.30932652366543   14.63336835581936
H         1.50277377931483    5.20798112637044   15.62146173077493
H         1.81206453692128    4.37509978088020   14.09469624603005
H         3.01662098977071    5.46985868049588   14.76478926449880
C         1.60323621340737    7.78491747738509   14.62255077064918
H         1.27518193487227    7.70203695865001   15.65800708890994
H         2.66448754636871    8.01406914473593   14.62357194671291
H         1.07479483360488    8.61913840185543   14.16897073819831

