90
CSD_code = OROTIZ | q = 0 | S = 0 | Stoichiometry = C39H43FeN7 | MND = 5
Fe        3.42779547747438    3.11779542641859    2.39735751032011
N         5.83906264430083    0.90595189863502    4.41186568759668
N         5.93262221584887    1.72535599879409    1.45982522845932
N         5.85575857508042    3.87150931056845    1.25474299990170
N         2.79803532883507    0.65166470392653    4.09556827967630
N         2.26265155426409    0.63652523917671    2.01582473528488
N         5.16376423683847    3.84607843614182    4.84132505377023
N         3.04945303909168    4.21032298703727    4.92288796206241
C         6.46135750801327    0.20404251318384    3.31555088661599
H         6.50443154515045   -0.87607700405265    3.51572609277948
H         7.49007284366987    0.55967038546037    3.19626879064794
C         5.72162746024767    0.40780754746408    1.97444061929639
H         6.07959198387196   -0.32777445512716    1.24868192037355
H         4.65306748953080    0.28675837335291    2.13153382675339
C         5.14235208849183    2.79245948794209    1.72801155894047
C         7.08679300732239    2.11833015490380    0.82460769931725
H         7.83355997400589    1.41846595606365    0.50721963261560
C         7.04299620537987    3.46010780919850    0.69189859358876
H         7.73577709342637    4.12909540583661    0.22469440809478
C         4.90833859681229    0.16451873327970    5.22728063541179
H         5.29380512794115    0.03477048133477    6.25049323844029
H         4.76595467729540   -0.83046023336390    4.79679766469514
C         3.52849227862434    0.85113186314400    5.30915782579565
H         2.95974729842533    0.42699496759441    6.14181855764667
H         3.66314357462797    1.91568102137105    5.46817286222919
C         2.89173725624088    1.38694064818324    2.95616899690807
C         2.11301539129379   -0.51667998307865    3.85288075124610
H         1.91703464670297   -1.23414544802997    4.62431356403055
C         1.76954178049089   -0.52159079367231    2.54610243292929
H         1.21614933467752   -1.24481764332822    1.98360253275924
C         6.63646488521541    1.89198320753770    5.09712415661867
H         7.70756641682590    1.64359093335788    5.04516700448402
H         6.35174232302363    1.91536289300509    6.15327143444415
C         6.45028358654299    3.30931621508359    4.51830781986630
H         7.22301927168176    3.96860483660671    4.92544697344900
H         6.54866370658215    3.26263657240262    3.43938542191045
C         4.01508854730164    3.68084685824577    4.13485294143436
C         4.90002443567425    4.46359218917926    6.04098507818941
H         5.67054520331195    4.69326726084949    6.74926864176995
C         3.56859294714037    4.69899332853714    6.08785018918772
H         2.98614043236943    5.17342132234399    6.85015675882403
C         5.43970440910945    5.16823266625560    1.54138131750425
C         4.09337319665898    5.35288174391838    1.87997071486595
H         3.32676789690866    4.57746172241123    1.63189969901599
C         3.64829723958506    6.61902856903564    2.24057000683381
C         4.55713103649697    7.67053364940486    2.29467376615947
H         4.20897615213156    8.65141300719475    2.58610049072120
C         5.89319474905001    7.49352371195819    1.96669482329113
C         6.33127125566118    6.23132142695026    1.58912913403679
H         7.37326623850523    6.08178223331633    1.34732424013833
C         2.20585597162244    6.86243138210032    2.55872446933904
H         1.83674410077633    7.73160062220628    2.01627904970646
H         2.08078227282869    7.05769821451588    3.62362841236310
H         1.60304037887970    5.99442519126967    2.30520040943097
C         6.85123504357678    8.64665964027839    1.99916744322416
H         7.84548032642676    8.31922020249137    2.29627851838551
H         6.51130095440545    9.41357788574572    2.69094130768413
H         6.92803759145314    9.09607114753147    1.00830775564741
C         2.30170672561225    1.10951741910761    0.70568478458756
C         2.82235541254594    2.41010333670531    0.61847326043990
C         2.87944381079190    2.90875531888579   -0.69502027748516
C         2.46392370711348    2.14197254121451   -1.77910579513064
H         2.52611721585812    2.56584994647188   -2.77428904440271
C         1.96283803692463    0.85728203602219   -1.64147376170538
C         1.87775155444675    0.33656664060607   -0.36178329905029
H         1.48455162158954   -0.65928611570694   -0.20834393971159
C         3.34999906266698    4.30581380694190   -1.00309644508495
H         3.23893938642556    4.51859511374564   -2.06508753118850
H         4.39876613503670    4.43562752964668   -0.74545558539460
H         2.77125190787914    5.04398626578048   -0.45017132756890
C         1.53553835027518    0.04828000161718   -2.83128779360286
H         1.40047231593206    0.68370249475670   -3.70371807908799
H         0.59937812701485   -0.47039439176439   -2.62910821057793
H         2.28907888700448   -0.70390199886615   -3.07159015798375
C         1.73152853423767    4.13985894151304    4.45587015490559
C         1.61484488383636    3.61079245659290    3.15944032196107
C         0.29722324525773    3.59230914751312    2.67530042350506
C        -0.77035999542282    4.02277042931895    3.45756347487281
H        -1.77062796712885    3.98185182066026    3.04409856396737
C        -0.60886864460607    4.51159268671911    4.74419003337961
C         0.67901332560595    4.57954557101380    5.24335868222990
H         0.85343435329262    4.97574595490449    6.23463657407894
C        -0.03719874596688    3.13579452365471    1.28540431581766
H        -1.00498809097021    3.52650359653070    0.97531503897819
H        -0.08074752203480    2.04918973940789    1.23972679531867
H         0.72097034358362    3.46036352430671    0.58156588833428
C        -1.78980847874044    4.94824090551408    5.56072819428010
H        -2.49417704830369    5.51054664671313    4.94985612999879
H        -1.47667696386524    5.57123737144404    6.39642026812727
H        -2.31519428961863    4.07997431693741    5.96168981647444

