155
CSD_code = OROVEX | q = 0 | S = 0 | Stoichiometry = C75H75ClCoN3 | MND = 4
C         3.96879900801615    6.19193719508149    2.78152559955290
C         6.18040096121493    5.14422295565745    3.86341679209329
C         3.13761932887886    3.73676985172560    2.83027273112138
C         3.25485394424506    8.59087453643665    2.54117120459132
C         2.21506877323102    9.19273997267757    3.26189347590280
C         2.01771576972332   10.56026774588220    3.10836673560223
H         1.23549707386072   11.03882638999601    3.67861376863534
C         2.81664236501348   11.30947525793851    2.26417928568697
H         2.64791051687931   12.37125738172426    2.16402832017475
C         3.84350973030321   10.70288121198106    1.55924009768811
H         4.48439749166031   11.28701515719790    0.91501637113593
C         4.08082007425544    9.34514155583125    1.69164512962910
C         1.34919466429533    8.44181016648295    4.19967248314582
C        -0.02430977290885    8.36712185567642    3.94000885456247
C        -0.86489412946033    7.78381917083638    4.87360531327775
H        -1.92648410081179    7.73945588255316    4.67105498328819
C        -0.37653035736582    7.26166398364024    6.06366893272492
C         0.98937190548390    7.30693968027588    6.28615229734349
H         1.39500937710203    6.89392264886052    7.19936572147500
C         1.86302314969795    7.88622061175533    5.37457084874184
C        -0.60578268226785    8.89558157252023    2.66002187011340
H        -1.50605218586777    8.34244842563565    2.40099301018249
H         0.10479188541715    8.81252001715555    1.84067862287353
H        -0.87793832100781    9.94594519982310    2.76419958937019
C        -1.30611076896560    6.63611745266799    7.05953556524451
H        -0.84972607262566    6.59761215240546    8.04587733535378
H        -1.54886363849585    5.61587215913132    6.75833393211345
H        -2.23691293523452    7.19631281946950    7.12337777940489
C         3.32618306933160    7.89445962875452    5.70056997052312
H         3.85880869159926    8.67914608300636    5.16893875692250
H         3.76686512107411    6.92927889004724    5.42777207112512
H         3.47451860067508    8.03256588270564    6.76971814589667
C         5.20833632604554    8.68705582288618    0.99407465622428
C         6.35369997621028    8.34381795115654    1.71463130473366
C         7.40144047325705    7.72306628880744    1.05343485040742
H         8.28210414535246    7.45039781937398    1.61444414837813
C         7.34799459473985    7.46100119942455   -0.30762486179270
C         6.20320624418582    7.81510681141633   -1.00661463166852
H         6.14790164154288    7.62680453163611   -2.07038644192092
C         5.12708729787809    8.41635870351249   -0.37181694204713
C         6.46903442371779    8.65218786437665    3.17704969664235
H         7.51242703230585    8.73660788423358    3.46804753915647
H         6.02436464456760    7.85126575388176    3.76831904334439
H         5.95814123455451    9.58153914677929    3.42300694162894
C         8.50698500121881    6.80820198760836   -1.00005038663469
H         9.44901871055442    7.19837985544178   -0.61982193065064
H         8.46580077942582    6.97694229244012   -2.07386018029121
H         8.49527642111992    5.73295153400694   -0.82099649667891
C         3.89201602597048    8.77922886495986   -1.14377678310135
H         3.82067866276499    9.85984889375729   -1.26589472856581
H         2.99801686677659    8.44847462705369   -0.61657917950386
H         3.90701624391324    8.32607188368226   -2.13251208956439
C         8.61795359459988    4.61520599226913    3.83353738807020
C         9.71649151614020    5.40157182870736    4.19791767542759
C        10.98909002962019    4.86048584955120    4.05816839362894
H        11.84282814164703    5.45058319075928    4.35624344032177
C        11.16753342278692    3.58265484230153    3.55950085435981
H        12.16457879043745    3.18212348033634    3.45050257684658
C        10.07110465569552    2.80997278640503    3.21244504242868
H        10.20755562994530    1.80913051218338    2.82850345942393
C         8.78442082626259    3.30460808760892    3.35503567563331
C         9.53022199299902    6.76680410475639    4.73326178872629
C        10.05468655162379    7.86594429304218    4.04741104442238
C         9.86783666966592    9.14091485968378    4.56374690602404
H        10.27045273052661    9.98803570923504    4.02534239271728
C         9.17655249436037    9.35025366282239    5.74686622167164
C         8.67942219397140    8.24629883941267    6.42362710619143
H         8.15140602813951    8.39138620829998    7.35560590010046
C         8.84885894364973    6.95767455617146    5.94097659482917
C        10.81761019188315    7.71378273495282    2.76187394559500
H        10.61709927942583    8.55676026031995    2.10240689975215
H        10.56173417780445    6.79026294071244    2.24738553236524
H        11.88953546670470    7.69978315445296    2.96271821425364
C         8.95385187355228   10.73438830329746    6.27588535898902
H         7.95940958144941   11.08314329162703    5.99478213017730
H         9.68472949276417   11.42952504789859    5.86955349620313
H         9.01826795096020   10.74820488446068    7.36180335043483
C         8.33190835681153    5.80140893409685    6.74469599161299
H         8.30966900724461    6.05990478587404    7.80123564282115
H         8.95523390160903    4.91883998099479    6.61389944714612
H         7.31585122627451    5.54327031008013    6.44514008760647
C         7.58735159585865    2.48059505633464    3.07426300558475
C         7.20636655788645    1.50895504202980    4.00485814598966
C         6.05300294332237    0.77924212186737    3.77866683085966
H         5.74875944661272    0.03741636659619    4.50316427301443
C         5.25178065427923    1.00995602240967    2.66976047858403
C         5.63934671119249    1.97999472263775    1.75869575799251
H         5.03850357559807    2.16895982456900    0.87939041387091
C         6.80479290054412    2.71569242194344    1.94342903939800
C         7.97815570028617    1.30729283124802    5.27452028138714
H         7.71987466796516    2.10143766629352    5.97611849004141
H         9.05283657682895    1.33815521979207    5.10843844592182
H         7.71653879315665    0.35656181509113    5.73228653414214
C         3.97780779086356    0.24010398568929    2.50571222556555
H         4.16359169575231   -0.83188109358135    2.56452691900543
H         3.50684975296003    0.46542988938050    1.55319736229663
H         3.29234906904201    0.50635166192651    3.30980488134287
C         7.20692444364348    3.73288777847637    0.91272296597268
H         6.91128912255943    3.39404412175200   -0.07766808827524
H         8.28286705851174    3.89930653280453    0.92880275849424
H         6.70634930110876    4.68457205495028    1.10003032652120
C         1.33160211624018    2.49515751451986    1.59600969087957
C         1.30665929319384    2.35767967659115    0.20191718628286
C         0.20864055767615    1.73598558888528   -0.37787047460682
H         0.17263013239637    1.63425613792618   -1.45248274373856
C        -0.83217098019773    1.26364981207449    0.40364899646658
H        -1.68204104419810    0.79018304662988   -0.06511555389055
C        -0.78887793710401    1.39112277900508    1.78269455100953
H        -1.60151604016652    1.02186899219524    2.39002588922316
C         0.28920474351957    2.00516809518592    2.40036622106083
C         2.44575136685238    2.85424586711275   -0.60211067907691
C         2.70863770822963    4.22682693831768   -0.66812395035395
C         3.82831258171882    4.67111198351695   -1.35211015167201
H         4.04031160692021    5.72979760430175   -1.37945382128516
C         4.68355180467932    3.78795892525903   -1.99512892288549
C         4.38706681554364    2.43563623641288   -1.95412752235941
H         5.03365527071253    1.73121990569437   -2.45948005197480
C         3.28160472540328    1.95327680453181   -1.26590836051857
C         1.78770436088309    5.23388173356911   -0.04380115437470
H         2.14260492015161    5.50932921860726    0.94915058768051
H         0.77600090569010    4.84427142978666    0.04813236263091
H         1.75918891155866    6.13642400038261   -0.65111796196752
C         5.87788222161660    4.29793759577159   -2.74308848402773
H         5.56990645311559    4.69288592997829   -3.71196212761526
H         6.60009888479183    3.50346288172377   -2.91711891547954
H         6.35704809236950    5.10086777003925   -2.18853497308251
C         3.02878371323918    0.47259528145925   -1.26818421179785
H         2.62102764030459    0.16931487594005   -2.23327973883048
H         2.32177983811695    0.17742719776968   -0.49710769307488
H         3.96116402472549   -0.06923038556758   -1.11770704607555
C         0.41591193056960    2.16059668084809    3.86512646374292
C         0.64163250468156    1.03990626050119    4.66931636451484
C         0.91525818034836    1.21978491700970    6.01613501734808
H         1.10953993458434    0.35245505202612    6.63185075996290
C         0.97832604093666    2.48434915605080    6.58199102751958
C         0.70757671139088    3.58028394486017    5.77891983657062
H         0.74580059635676    4.57489023965416    6.19704971199626
C         0.42115345844215    3.43806766067483    4.43056500503817
C         0.59726164568694   -0.35199564218402    4.10560350005831
H         1.23410610920330   -1.01615691192099    4.68573153895986
H         0.91773982167100   -0.37656823220274    3.06646955267598
H        -0.42093676996652   -0.74098960546814    4.15203473554308
C         1.36782352704545    2.67017989484873    8.01535382561993
H         1.16774361157402    1.77371123030779    8.59776763912836
H         0.83599496493422    3.50978738171108    8.45826873397217
H         2.43633340784083    2.88088541025297    8.06706117656777
C         0.10667697999604    4.66890986612001    3.63045541517577
H        -0.20106251729116    4.43096595145785    2.61537375035487
H         0.97660187915280    5.32517089566309    3.59046034019027
H        -0.69596886455625    5.22585377711355    4.11050758317810
N         3.49397118977062    7.26667120740692    2.67206307171635
N         7.35383645148725    5.09732847377591    3.91915322966055
N         2.37477607393390    3.11773241874749    2.19191367649298
Cl        4.66968286408925    3.33607967825747    5.21258844961007
Co        4.47193122297943    4.68215617300766    3.54975591860243

