155
CSD_code = OROVOH | q = 0 | S = 0 | Stoichiometry = C75H75CoIN3 | MND = 4
Co        1.36480261424892   15.01015327476525    8.15780982960766
I         1.57814643402120   14.04180435786215    5.82754266232793
N         2.27722091848748   17.63195508424526    9.02158336640237
N        -1.52579900106054   15.41769006947871    7.79897095886054
N         3.59706096915171   13.53457365121046    9.40737404637318
C         1.83634617287735   16.54246756214998    8.93554312519560
C        -0.35135472658578   15.44980046672588    7.89101168342675
C         2.76394946403238   14.12894140238472    8.83815213550668
C         2.47553959134063   18.95933033112157    9.19600393313660
C         3.50576919070737   19.61481813206240    8.51052770229258
C         3.66269032121588   20.98057153773377    8.71854558792379
H         4.43870869341614   21.50112008071716    8.17757783308742
C         2.83141433809175   21.67513163044431    9.57781234316861
H         2.96915309148589   22.73658060506207    9.72008186843670
C         1.81005857810615   21.01588786510560   10.24221191291163
H         1.14174005441607   21.55842023333681   10.89486236874564
C         1.61348803723189   19.65778461962263   10.05718772572060
C         4.39644706371532   18.92483480932654    7.55014161022994
C         3.89794037747013   18.40689129912167    6.35188229411343
C         4.78414069091541   17.87214502440472    5.42507027021492
H         4.38772262096735   17.47448549990926    4.50150041507669
C         6.14980120511365   17.85169916609133    5.65031408405883
C         6.62514039646924   18.34533815719900    6.85861618238084
H         7.68789399510536   18.32163322079620    7.05931798117703
C         5.77043726367595   18.87196296893133    7.81232694280255
C         2.43687382873397   18.41934038349500    6.01791231675778
H         2.29568456763924   18.54388368060557    4.94661312994033
H         1.90726662918602   19.21467218293978    6.53778871783304
H         1.98690239953718   17.46329429040124    6.29737127370675
C         7.10362861336890   17.30769282320533    4.62965164662790
H         6.57654640436224   17.00244604115185    3.72915720014749
H         7.63930124355203   16.44550558060748    5.02700170962346
H         7.84195842311274   18.06279199690050    4.36184696761633
C         6.33618061582173   19.36535224034031    9.11343121678418
H         7.24724474204944   18.82238929001450    9.35620458434527
H         5.62519662803284   19.23796579206169    9.92702483998309
H         6.58653843675696   20.42437529836770    9.04836750852181
C         0.49116366251838   18.94367815527865   10.70630006948575
C        -0.62660984526815   18.59401153779834    9.94569882452905
C        -1.66767951629875   17.91354862306769   10.55612299823247
H        -2.52652379833374   17.63734431975017    9.96387738774110
C        -1.63616283031244   17.59834724620201   11.90708324655052
C        -0.52173188566164   17.96402701516564   12.64748028641458
H        -0.48529211317587   17.73734472710501   13.70449638266317
C         0.54819331109105   18.62533875501539   12.06292971989596
C        -0.72091645664022   18.96104052718350    8.49523689987977
H        -1.76021421735800   19.01291444344153    8.18320621260688
H        -0.22689021089197   18.20998191598271    7.87815000999501
H        -0.24604543868020   19.92173123170170    8.30277908431228
C        -2.79309773681220   16.88528107892974   12.54182889637872
H        -2.82912835294868   15.84806190928696   12.20824623667795
H        -3.73216647211287   17.35704129176279   12.25775703525748
H        -2.71274058187552   16.89605661841683   13.62641921757006
C         1.74979682432446   19.00320778837294   12.87926999202324
H         1.72137322935602   18.52357407138559   13.85524459298273
H         1.78428278635495   20.08177772730892   13.03174216013679
H         2.66846703305107   18.71460037859449   12.36954636959491
C        -2.76428041292556   14.86753615430668    7.83791841149139
C        -3.90774642215871   15.61732470556711    7.54504513725798
C        -5.14525582780873   14.99194162482071    7.64509401978427
H        -6.03419392646569   15.55453868966016    7.40235344714127
C        -5.24612253212998   13.66758808047944    8.03067933556121
H        -6.21755714705471   13.20289146575112    8.11103927635326
C        -4.10386479597752   12.92859414719379    8.29443451901009
H        -4.17814820512137   11.88901084630594    8.57996023252066
C        -2.85072788477549   13.50847394467509    8.18866561741319
C        -3.80810765107689   17.02654522673936    7.11085812364569
C        -3.14460360376174   17.34417630225197    5.91948365127943
C        -3.06743179671742   18.67109309520295    5.52403389594737
H        -2.55431452394020   18.91344111308765    4.60417469596428
C        -3.63675407328386   19.69042098595517    6.27299782774536
C        -4.30530841216302   19.35551541250965    7.44054491312136
H        -4.76156619360967   20.13497363431890    8.03528260291907
C        -4.40368974143848   18.03900540308890    7.86902386359036
C        -2.54756761965558   16.28677797901425    5.03898360562020
H        -2.57502368288954   16.60562543351141    3.99946217081904
H        -3.08296302837818   15.34369062327811    5.12826651307847
H        -1.50371059878369   16.10879796882359    5.29792306330837
C        -3.51329841559754   21.11854919090470    5.83689089722420
H        -4.28810775620737   21.73288440888778    6.28943841443277
H        -3.58491583738352   21.19906027060077    4.75436974996817
H        -2.54363102793795   21.51642694023919    6.13875927470724
C        -5.15220784159094   17.74980270875617    9.13978434753628
H        -6.22178260404011   17.68446289920104    8.93646318988946
H        -5.00220735785037   18.55575696200574    9.85659203357369
H        -4.83904979993066   16.81042241117689    9.59009243773083
C        -1.60023509524190   12.73700379337923    8.36842963088737
C        -1.17066786481467   11.89073326043790    7.34185823920182
C         0.03387844182241   11.22141751286584    7.48360974071246
H         0.37193093262610   10.57578508763388    6.68606057111369
C         0.83807780079742   11.39453345460354    8.60089587800401
C         0.40481927123355   12.24793042972417    9.60705180722948
H         0.99775109791048   12.37431263441369   10.50342598111240
C        -0.81454414081313   12.91340813144750    9.51062886657494
C        -1.94111989180644   11.75572035684740    6.06340098173939
H        -1.70352972090009   10.81427337560526    5.57478259354275
H        -1.65324475378886   12.56200306367457    5.38700556500678
H        -3.01481255287267   11.81368542884254    6.22451362589476
C         2.15452845598374   10.68537657329165    8.68092037881545
H         2.61228061487706   10.81901296737558    9.65786252342308
H         2.82868530227677   11.07724940800514    7.91878057131929
H         2.02689119343260    9.61989084264873    8.49409576262966
C        -1.29031487757816   13.76803231836060   10.65244499341703
H        -0.85769174752826   13.41560493993938   11.58582946241205
H        -2.37691810582497   13.73829565604421   10.72732277241510
H        -0.98493050201741   14.80740899074122   10.51899167728749
C         4.63648107159719   12.93339946346045   10.02975883151676
C         5.73066981295666   12.50071718325108    9.26450262662783
C         6.79805578319000   11.90612890127907    9.92056599715449
H         7.65193882956370   11.58312765401536    9.34445103324192
C         6.77794279514926   11.73798260626183   11.29512889321786
H         7.61938972581943   11.27905954203093   11.79264351439529
C         5.68295968324368   12.14966695998926   12.03629100447866
H         5.66573738123272   12.01307638611487   13.10754230082981
C         4.59661806054343   12.75353434086392   11.41889055518289
C         5.68525534738527   12.68326752063046    7.79881976427231
C         5.66012285984137   13.96944966215552    7.25364719732128
C         5.49176102162347   14.12189824221116    5.88672663152167
H         5.43845610163238   15.11948736898541    5.47951685310738
C         5.35576883212896   13.02955148996668    5.04520822737077
C         5.42383249824281   11.75964152281724    5.59797264000616
H         5.32625115149295   10.89583157234910    4.95560334741871
C         5.58419614352985   11.56815039378013    6.96130035941321
C         5.83004101803701   15.20120175776953    8.09531995151771
H         6.10199758617544   14.96544191447503    9.12155028954439
H         4.90879958664774   15.78563685223867    8.10071203013966
H         6.60699797454320   15.83376866258233    7.67047800194089
C         5.09874470086764   13.22560883698142    3.58526995213874
H         4.03816421377656   13.43382846182656    3.44143712220966
H         5.35557675570606   12.33517616141636    3.01724249865971
H         5.66516858897539   14.07096780448234    3.20122646905102
C         5.63828692568712   10.16864516295147    7.50568066574320
H         5.08704262652593    9.49073782694698    6.85782276095204
H         5.22380075640534   10.10901578594557    8.50964827534637
H         6.67194095757863    9.82277033076289    7.54811241279736
C         3.40461139192996   13.18613700022544   12.18270879735794
C         2.55052848454884   12.23383129131339   12.74209464107491
C         1.41236036149584   12.65734186270824   13.41611488345115
H         0.75449454443038   11.91371393938382   13.84539689820547
C         1.10061192138376   14.00112261489710   13.53918235935910
C         1.96681184944109   14.93437738829517   12.98645318513324
H         1.73746732921148   15.98619246542991   13.07418918428869
C         3.11889412477371   14.54853388522704   12.32149676621254
C         2.82296283071356   10.76011261297097   12.64341563595007
H         3.54079922897753   10.53090731131888   11.85949690413847
H         1.90000564114259   10.21726336285437   12.44549512657145
H         3.22821237203777   10.39379416390594   13.58738682928976
C        -0.12786631468472   14.45148182249776   14.26993740277985
H        -0.78703830767409   13.61314517199907   14.48352761389652
H        -0.66912341476520   15.18715455880272   13.67932363188276
H         0.14972547173097   14.91708934349778   15.21604617409938
C         4.04955603261949   15.59940662065299   11.78990485405812
H         3.76041874394684   15.89198107870809   10.77999888225798
H         5.07656593813340   15.24020379359147   11.75990436828538
H         4.00864956626006   16.48659247724926   12.41867316530780

