83
CSD_code = ORUCAG | q = 0 | S = 0 | Stoichiometry = C28H38N4O12Zn | MND = 6
Zn        5.50514341167022   10.85615296145450   -0.00170376975995
O         5.14733779614809   10.13641029652514    1.75774195227736
O         6.52759860432997   11.22892896390641    3.12067999215086
O         4.04780005682195    3.92728176494571    7.49121261092042
O         5.78780294016066    5.03774894724125   11.13728646590712
O         4.46110296737785    9.27479924990661   -0.86980320887163
H         4.37066818681838    9.61663317537878   -1.82023912201291
O         7.34707810810446    9.70268671450296   -0.21283602424682
H         7.48525465736448    9.76168713222440   -1.16602156183587
N         4.98603227752465    6.23242759446899    6.72510473793654
H         4.46737806803804    5.39045537166532    6.44285264784883
N         5.42509278977760    6.33424640125088    7.93781766518192
C         5.77850289766570   10.27966483626760    2.84983790898801
C         5.56452425879218    9.21029229899481    3.88008411836535
C         4.89639091261321    8.03428886709441    3.55029926856127
H         4.53502963236027    7.90662261295118    2.54170489689841
C         4.70892830181395    7.05082330396084    4.49753881938753
H         4.19168078379738    6.13595321656748    4.24700669728626
C         5.19217354308874    7.23535470819883    5.79400874091242
C         5.86798038163285    8.41004334296556    6.12793981417983
H         6.23618658948601    8.53190122403288    7.13383386477207
C         6.05123613315604    9.38621701149814    5.17291970744053
H         6.57272773903481   10.30157287352144    5.40730826654634
C         5.24501922596241    5.41934853613904    8.85539351827487
C         4.50557245565165    4.16745663526116    8.60579780321913
C         4.31677131596260    3.19907690273200    9.73097335262161
H         3.74198945746248    2.34617765646349    9.37662480319638
H         3.80279571428758    3.68267328866859   10.55862448196101
H         5.28356396674797    2.87149544941704   10.10672867933358
C         5.85026250897871    5.75670925967254   10.16312462468848
C         6.57008943143320    7.08277933951960   10.20448191483588
H         6.98127308490275    7.23386220864962   11.19884974403432
H         5.87825939628250    7.88527828424602    9.96464354615284
H         7.36882686507278    7.09276318434510    9.46825432888504
C         3.18580712980580    8.83647785126522   -0.44174428163038
H         3.24056651046455    8.63996482961376    0.62696386799264
H         2.91571261707175    7.91693067973849   -0.97088066879392
H         2.42111727110622    9.59454367376934   -0.62268870739309
C         7.41646622222817    8.33783038996976    0.17148863371531
H         7.25810362833108    8.30368876971394    1.24710028302100
H         8.40392947077950    7.93069445543944   -0.06307208418261
H         6.64210856696429    7.74594527396749   -0.31929538500917
O         5.86461181204948   11.57496344209069   -1.76131522344380
O         4.47398060207411   10.49196575852329   -3.12131907146082
O         6.97858006976060   17.78713661964036   -7.48852605439502
O         5.22675194096284   16.68890678792126  -11.13262790681127
O         6.54745415086111   12.43952107213488    0.86581869528313
H         6.63436584974215   12.10049226948538    1.81762175723013
O         3.66364789395382   12.01060779466498    0.21057994899489
H         3.52814042101975   11.95544479278446    1.16436882465440
N         6.03145626641915   15.48529634163994   -6.72341319825286
H         6.55432289248683   16.32464193430726   -6.44110850225761
N         5.58975673082779   15.38685590346124   -7.93544775565370
C         5.22909741291439   11.43672127369964   -2.85157511246320
C         5.44556464707716   12.50644163727972   -3.88094960941901
C         6.11906094093243   13.67930828800499   -3.55091171661942
H         6.48258283655475   13.80429797769056   -2.54276644058752
C         6.30892635403900   14.66313454697073   -4.49729391915847
H         6.83033612177218   15.57558354453307   -4.24656068933998
C         5.82271845900271   14.48212980590153   -5.79315223726698
C         5.14147586772081   13.31064720834789   -6.12730246591979
H         4.77103964612266   13.19151018445948   -7.13270386950841
C         4.95583909078595   12.33409049745081   -5.17312685775569
H         4.43016315507224   11.42117987700667   -5.40770872002505
C         5.77230853377906   16.30199571238800   -8.85229275685411
C         6.51806140340127   17.55013223875676   -8.60265866835533
C         6.70997277488784   18.51852993890610   -9.72729275706847
H         7.28968928114267   19.36816401294151   -9.37313869577361
H         7.22007573148242   18.03306300346056  -10.55624209427546
H         5.74423751768984   18.85139536410883  -10.10112380318179
C         5.16298584362213   15.96900459411088  -10.15924725228013
C         4.43706173220525   14.64626833020632  -10.20081569558322
H         4.02336097551348   14.49821866264452  -11.19459539077116
H         5.12566435806168   13.84034810136796   -9.96317333660203
H         3.63963874549366   14.63906966189754   -9.46313093701739
C         7.82458461445746   12.87557126330995    0.44095449490555
H         7.77370308460307   13.06913746041406   -0.62849051014802
H         8.09362286486790   13.79638091661472    0.96843300955129
H         8.58801391664686   12.11738742598353    0.62670047309962
C         3.59216088094207   13.37385003278678   -0.17903915906712
H         3.74621678197721   13.40374961840578   -1.25540979418847
H         2.60547131283204   13.78154960759064    0.05774986339258
H         4.36821060716687   13.96801695799424    0.30629019064514

