77
CSD_code = ORUDAH | q = 0 | S = 0 | Stoichiometry = C27H45ClN2PRh | MND = 6
C         4.27267171982684    0.50568558727552    3.62664087804791
C         6.25461717801209    0.80372978899692    4.97360420745725
H         5.77978727041347    1.78798704465449    4.94643268823011
C         7.67062697562520    0.94142983022858    4.41552197177255
H         8.22865336586888    0.00983214342837    4.47447804590867
H         8.20931738422503    1.69325647430037    4.98654045183042
H         7.63377111414861    1.26162876275019    3.37684284675625
C         6.25595451507745    0.32569664346626    6.42542340193225
H         5.23507146290159    0.22668473209339    6.78663763543958
H         6.76870062233853    1.05593142974961    7.04597323872319
H         6.76057553943572   -0.63086812262833    6.54131301907810
C         5.83402041699946   -1.42577206688789    3.96230039039352
H         6.73005104365371   -1.51468139797703    4.58155762142847
C         6.24853719856583   -1.79092236458398    2.53441542040088
H         6.82880799115061   -2.71069161720875    2.55610519398364
H         6.86585126347201   -1.00570771932520    2.10554084675579
H         5.38560458517873   -1.94997128971073    1.89565210171683
C         4.81625874522080   -2.42848739962698    4.51219025316519
H         4.43593087133339   -2.09381279728461    5.47412518434006
H         5.30199886926715   -3.39166120282371    4.65078640001486
H         3.98146252598105   -2.56472338920481    3.83201483113710
C         3.43741129321766   -0.28148395403263    2.68067655075311
C         2.29088419941786   -0.92270024552850    3.13970988273422
H         2.06074287919102   -0.90679784951711    4.19592682912431
C         1.45599867896730   -1.58192022826274    2.25482757154774
H         0.57132510284068   -2.08067439084220    2.62228405342599
C         1.74995661742050   -1.59661877983356    0.90153296162786
H         1.09639301397562   -2.10807327842300    0.21100893162810
C         2.88102259376173   -0.94903546563427    0.43592160359111
H         3.11130101489524   -0.95074880205492   -0.61928557174540
C         3.72060057193400   -0.29216071486785    1.31998020565363
H         4.59956556585057    0.21642704846111    0.95025003987011
C         1.25859428875949    2.27418664385963    2.99410153924785
H         1.18539134962453    1.21604186050491    3.27201332084485
C         1.35307718560898    2.39683623319232    1.47467649215807
H         0.43667238298902    2.05337856002554    0.99624662162022
H         2.18371252818830    1.80634501130020    1.08888408863765
H         1.51701408186536    3.44558098944342    1.20820347447440
C         0.03188385394893    3.01687632826495    3.50774453662936
H         0.13324042676936    4.08312768780055    3.32446662099180
H        -0.11982758401010    2.85699993206159    4.57234959688322
H        -0.85331860349358    2.65802327048786    2.98256790106470
C         2.55418437174188    3.44029279375186    5.41196278085672
H         1.71596583932161    4.14010432100767    5.36076909111331
C         2.21406239997376    2.26840770212462    6.32205672127689
H         3.05534831529351    1.57967315408172    6.36951715769133
H         1.34571623070230    1.72362375134197    5.95705591503640
H         2.00012900577668    2.62338906332954    7.32949824496703
C         3.78425908171463    4.19549431946546    5.90703974380974
H         3.59675920812156    4.64747757435401    6.87998466285238
H         4.03746784937813    4.98839885159042    5.19474524145080
H         4.63452146346942    3.52148913024765    5.99377211155430
C         5.02325270888803    3.43370228297304    1.29080831343945
H         4.71138722942357    2.39278999622465    1.36800460507942
C         5.76750266867247    3.95118447347846    2.35235013007986
H         5.94635715356239    3.28826637509300    3.19619181993639
C         6.80220816317150    5.04502442662163    2.18821546091847
H         7.24241245657012    4.97560311226140    1.19196010686922
H         7.60879779195598    4.88435222891233    2.90724089424250
C         5.09051913221866    3.92694181262654   -0.13671059644610
H         4.24944317446662    3.48862770579600   -0.68133199589490
H         6.00931214203630    3.56029263385034   -0.61048986338507
C         5.01258365798160    5.46102361564605   -0.25119480017147
H         6.01317083472391    5.89602588536172   -0.24204995038586
H         4.55693800161013    5.71985098851708   -1.20936769497905
C         6.20542270013410    6.44616126228331    2.41871390296520
H         6.29929120365735    6.70086165025832    3.47757745841404
H         6.77092243771181    7.19600414470240    1.85370854874642
C         4.19689754688410    6.07546697770872    0.86443628323615
H         3.23053744147832    6.47907521586558    0.56235832434731
C         4.74438505111236    6.54042839321176    2.04471821790322
H         4.19972862309690    7.31164046132029    2.58911237067186
N         3.92949055677105    1.68280329502764    4.00440821400593
N         5.41791429240334   -0.03578137650876    4.11764626442495
P         2.89912674798692    2.91833611015419    3.65915941428977
Cl        1.93611467119504    5.79964632941119    3.10955103263851
Rh        3.76935774643792    4.65584841175725    2.45599798917757

