62
CSD_code = ORUDIP | q = 1 | S = 0 | Stoichiometry = C29H29NNiOP(1+) | MND = 7
Ni       10.85295888341654    1.09227833279267    2.53203532641124
P         9.26870633250523    1.42776813618175    3.97144777738099
O        10.43815151765088    4.62564290265170   -1.22650700377862
N         8.26116268523067    4.07920536911713   -1.00354637609597
C        12.98400034484971    1.08702203029544    2.63975487658405
H        13.71112360077597    1.88186134171119    2.61253426085613
C        12.46858723372894    0.46097762398827    3.76251802560189
H        12.73217565649208    0.66016756965073    4.78907291035554
C        11.65723895754467   -0.65648510758300    3.32529926310614
H        11.24498425151959   -1.40339375108388    3.98801960964274
C        11.71775900408030   -0.73242600193864    1.93488280460734
H        11.33977679067768   -1.52455518415645    1.31008538879531
C        12.44605936531493    0.40818478352561    1.49025506985284
H        12.76041003185891    0.58326308538367    0.47123581162697
C        10.25821578071984    2.24389703951314    1.26292316663945
C         9.84265374332807    3.01383731001998    0.40245800669304
C         9.50983076930307    3.90967907265897   -0.61244975758490
C         7.17090271448397    3.35083568050846   -0.40343301791149
H         7.53882587442918    2.70785406071159    0.39377037451538
H         6.67466699063665    2.73972800856524   -1.15900843860155
H         6.44221947950756    4.05086066082785    0.00760882665379
C         7.90072904543671    4.99006475985034   -2.06356533946516
H         8.78378211358380    5.49173332577809   -2.44886207726449
H         7.19920711995128    5.73476041793348   -1.68486359754753
H         7.41800767736775    4.43943792377460   -2.87248275483629
C        11.78987630602120    4.46106323087803   -0.81933317595316
H        12.36836063048266    5.14050543835293   -1.44075247965658
H        12.11915259882145    3.43255422580748   -0.97769280764630
H        11.91137791676024    4.71643009698945    0.23516191286623
C         9.34845879471936    3.02934737977613    4.82198710395259
C        10.16285167309639    4.02176556477230    4.28708684514915
H        10.73346131767941    3.79844430126557    3.38879987898709
C        10.25290137971238    5.25508318639662    4.90630952466520
H        10.89028096496654    6.02292401265957    4.49442536771420
C         9.53140853790766    5.49993310854810    6.06395225630096
H         9.60416040810699    6.45982200141075    6.55160808380047
C         8.72741505308983    4.50930802300444    6.60652860590803
H         8.17687477839501    4.69828932445992    7.51559608562599
C         8.63638892234273    3.27256417296344    5.99407339014938
H         8.02941969769942    2.49215440968608    6.43206343124410
C         9.13528633905319    0.23841270901546    5.33934077892154
C         9.99891870313372    0.37507459176036    6.42452133741748
H        10.68742002063997    1.20938620630913    6.45829320172277
C         9.96374089437090   -0.54488481658276    7.45485621382922
H        10.62999412258268   -0.43485259028302    8.29719266655740
C         9.07764839558694   -1.61045415745268    7.40328012063857
H         9.05351533763681   -2.32989256229827    8.20717484141023
C         8.22654729504273   -1.75436157064653    6.31966396318533
H         7.53780725429955   -2.58465660476979    6.27935283336531
C         8.25538184833820   -0.83716205803224    5.28356063555616
H         7.59498625392110   -0.95234194371177    4.43560268849984
C         7.62502747661093    1.35274862151008    3.19069712021596
C         7.50194239105042    0.50941896402563    2.08850530438701
H         8.38856105540501   -0.00539179211599    1.72314186515443
C         6.27574298993115    0.34145554776083    1.47277150790785
H         6.18034094957836   -0.32393269902435    0.62809979152155
C         5.16810641277871    1.02770699011751    1.94754559748616
H         4.20831734279312    0.89640358127064    1.47206632211217
C         5.29164717531132    1.88173388648438    3.03154067898639
H         4.42895420098042    2.41826983572724    3.39618920931760
C         6.51548840826529    2.04490476232142    3.65877378351005
H         6.60700018843304    2.71242723076854    4.50223237897420

