85
CSD_code = ORUFOY | q = 0 | S = 0 | Stoichiometry = C40H36Cl2N2O2P2Ru | MND = 6
Ru        0.99554351747897    3.39194254909248   10.79476018318911
Cl        1.62943877253322    1.84051909673889   12.48060083294872
Cl        0.56267010055823    4.70900398826186    8.87183532521860
N         3.30713133583187    4.78992727354872   12.21625212862908
N        -1.47983244494462    1.90547475210196    9.76046739948579
O         3.05958619420353    3.44101722923256   10.40129240683769
O         0.76086325109066    1.84931140152814    9.38765457973191
P         1.57979325762094    4.95288505279601   12.28383486312771
P        -1.17205960527690    2.96869543153872   11.10530579035266
C         4.17566664223611    5.55112861809941   13.09396096336944
H         5.04232239647589    4.95474697328373   13.38263913011948
H         3.61130908615934    5.81630017640789   13.98753133520899
H         4.52107030701382    6.47069505515758   12.61442732860015
C         3.78525394458575    4.02307936153424   11.19884078610621
C         5.26279377247186    3.86821192588710   11.07558904350187
C         6.06648119567273    4.91218519311478   10.63448796942641
H         5.62460039914317    5.86707666191414   10.39005828520634
C         7.42725626635200    4.71196530524555   10.48381621053512
H         8.05204574219165    5.52027978716115   10.13400322403491
C         7.98609202833117    3.47840896351708   10.77537039408373
H         9.04897711304208    3.32761162463853   10.65791177100272
C         7.18232781162640    2.43595797885368   11.20638002583861
H         7.61618403377805    1.47158608623299   11.42433309219843
C         5.81917816965124    2.62424057199373   11.34965810150404
H         5.17724672245597    1.81933509999146   11.67526054057125
C         1.46525191017628    6.77473040692246   12.17130199732881
C         1.49148241000691    7.61555298650623   13.27976945518712
H         1.51414927772830    7.20123793565645   14.27828137013413
C         1.47619905461304    8.98733965000130   13.10355921826378
H         1.49631596055609    9.63786443916065   13.96619740931379
C         1.43569197570536    9.52751678328917   11.82785296448820
H         1.42319784752898   10.60000713102605   11.69817986814873
C         1.40637791930190    8.69278315827212   10.72278552052330
H         1.36789486239269    9.11012484647626    9.72760716535707
C         1.42224236728744    7.31944404023130   10.89101885157983
H         1.37774405603405    6.65815900625063   10.03386836435992
C         1.15683048797061    4.63185144634749   14.01631512507974
C         1.91951443582036    3.85175062695010   14.87631350026915
H         2.87016535093168    3.45783280972894   14.55023509098490
C         1.43462090777693    3.55066528004773   16.13669943141327
H         2.02373250218930    2.93861769913076   16.80355788835385
C         0.19439752616987    4.01656792060169   16.53968273092644
H        -0.17873336134300    3.77444738598473   17.52414538872889
C        -0.57547719788054    4.78097536793617   15.67722454265332
H        -1.54808633538581    5.13550558543147   15.98750096010528
C        -0.10044673303257    5.07910799626666   14.41466160296835
H        -0.69492292250320    5.65797022074310   13.71608235788083
C        -2.80579474888044    1.37398266541787    9.51425847233643
H        -2.74988391343104    0.49364545328210    8.87464428637021
H        -3.44164169575781    2.12426789293506    9.03855857080753
H        -3.25221394759194    1.08529541765452   10.46827255220088
C        -0.37581032143943    1.52194529808502    9.06084665869866
C        -0.54574113339544    0.66650578645915    7.85673082367964
C        -1.33404430767351    1.08758726938357    6.79006821953399
H        -1.85468843848911    2.03170313125687    6.84840471210817
C        -1.41409961793788    0.31081826388411    5.64860917989423
H        -2.01917637165064    0.64175573376751    4.81779311948082
C        -0.71706660353862   -0.88397094865348    5.56778393836478
H        -0.78667120497544   -1.48929518534215    4.67621736003687
C         0.08044396367054   -1.29528390071635    6.62312457869427
H         0.63515681133712   -2.21911859741038    6.55505566876059
C         0.17747148092202   -0.51773258866177    7.76275660017091
H         0.80885727600033   -0.81848908579066    8.58537922142661
C        -2.52088654694809    4.18906629724868   10.99733547404366
C        -2.17604903633199    5.49034311449187   10.64643216117881
H        -1.14354084642517    5.71486472186491   10.41311680180427
C        -3.14883349034965    6.47217615220535   10.57569390413512
H        -2.87396666162633    7.47924699624371   10.29972779293087
C        -4.46840910214160    6.16261156172152   10.85936000910666
H        -5.22977580843152    6.92703366815760   10.80402250701084
C        -4.81411071206910    4.87013941330014   11.22319157981831
H        -5.84208197267655    4.62969281505091   11.45385443683415
C        -3.84659579251491    3.88550041228642   11.29974113044925
H        -4.12172118330458    2.88763532474821   11.61086221767355
C        -1.67105439331852    1.93216239403087   12.51120505627639
C        -2.18681070923191    2.52628534743526   13.65782978163996
H        -2.40873197437436    3.58408895617327   13.65378922886600
C        -2.40912660849956    1.76646845212230   14.79083428677434
H        -2.80853697004378    2.23203107122397   15.68005110058129
C        -2.10846550504964    0.41449617220326   14.78993293838769
H        -2.27571690773997   -0.17630617628776   15.67860916404597
C        -1.57942827770933   -0.17868808729492   13.65514373567069
H        -1.32865917891035   -1.22920061098455   13.66031529727708
C        -1.35057159850572    0.57754494451020   12.52167343754414
H        -0.90570626442848    0.12375157405708   11.64556148121625

