81
CSD_code = ORUFEO | q = 0 | S = 0 | Stoichiometry = C40H32Cl2N2O2P2Ru | MND = 6
Ru        8.21625819727264    7.12505180735950   11.10674679233344
P         6.96267656111241    8.23251350323006    9.61579252194134
P         6.80978773993572    6.80059532754722   12.82119880928115
Cl        7.75634648238462    5.15076561197047    9.88733375412366
Cl        9.07872447934076    8.98890610058707   12.28523464932174
N         8.15034556630781    8.50219470238010    8.40594337378289
N         7.85389262727038    5.92916454301405   13.86877249634416
O         9.75150046448752    7.43641383519607    9.67434352693280
O         9.54875610951088    5.99350437649400   12.30898398078641
C         9.41939402365652    8.04556764506053    8.66792706161773
C        10.25823490445191    8.43531039437007    7.53282565656346
C        11.60104206796761    8.19359545834785    7.28996707144637
H        12.19032667319940    7.63487433672307    7.99957949810681
C        12.14418250795744    8.68962724170061    6.11713680380914
H        13.18669018842297    8.51792892482840    5.89567749663796
C        11.36471416535933    9.40707184315800    5.21894802711605
H        11.81243131774034    9.78389093702715    4.31147698709891
C        10.01993798136682    9.64988144891695    5.46553952255869
H         9.42145395774942   10.20985934784083    4.76287812565241
C         9.47117770183932    9.15685318163821    6.63129199226477
C         8.07433414522374    9.25569058978089    7.16415467940080
H         7.78220441930041   10.29443944054075    7.36082305114734
H         7.33673950946084    8.81634361959395    6.48286383089510
C         5.66300607645727    7.31260543894592    8.74358433178050
C         5.92175754254900    6.51581287116466    7.63523515090776
H         6.91721668870496    6.47934218581269    7.21613594651775
C         4.91019208023997    5.74202626249323    7.09556701114878
H         5.11112294740469    5.12224636216409    6.23415287594320
C         3.64901037189632    5.74420549010398    7.66835502327130
H         2.86528488517423    5.13113546848246    7.24782552124244
C         3.39446305798149    6.51913029748002    8.78888555158236
H         2.41598258995543    6.50745558484525    9.24681405226035
C         4.39988821028647    7.29868342629326    9.32718336291987
H         4.22224019370963    7.90206024658744   10.20894969158048
C         6.20027225805680    9.88348003251263    9.76184795823889
C         6.49431085132232   10.66616725846210   10.87225614588096
H         7.17070146696128   10.28623080425629   11.62636353994687
C         5.93019539810683   11.92446534601840   10.99637057157959
H         6.15674248990118   12.52667650238873   11.86339355456540
C         5.08117876245131   12.40612607396663   10.01446180004810
H         4.64161698101587   13.38838409277401   10.11074177905292
C         4.79123869431337   11.62859232558831    8.90321213976331
H         4.12930450741733   12.00542747845436    8.13667033211714
C         5.34357969880868   10.36795140230184    8.77589429191230
H         5.10343529103593    9.75216120511041    7.91931885978658
C         9.11318786230336    5.64718730671492   13.39743021224525
C         9.79476616660208    4.86877952541339   14.43334774244993
C        11.08515382064490    4.36446018765091   14.46764802035078
H        11.75572709730395    4.52820672468642   13.63909234589430
C        11.47104152653184    3.65479023573850   15.59200422727707
H        12.46969515577287    3.24934556485892   15.65212285325224
C        10.58906637786849    3.45679538917644   16.64657934929611
H        10.91470626168927    2.90036173868137   17.51276232474604
C         9.29587768921066    3.96124195519576   16.60892228713488
H         8.61648755352892    3.80218677442218   17.43270782898871
C         8.90464369147354    4.67059484917471   15.49221520390857
C         7.59654341713597    5.32500177883508   15.16657685809792
H         6.77978513320214    4.59613877503135   15.09768080281316
H         7.31588605043045    6.08525249276378   15.90440392054480
C         5.28930593812584    5.79451644877517   12.88466493310436
C         4.47769344418820    5.79426026387857   14.01707360755093
H         4.73548542562795    6.41405303187634   14.86568106946083
C         3.33674260532809    5.01464590633590   14.04587337445844
H         2.70911907051304    5.01243565050853   14.92558989220453
C         2.99494033935932    4.24158243000482   12.94621539387173
H         2.09865482115659    3.63882560742767   12.97239873066372
C         3.79899492527515    4.24384346473426   11.81894938118669
H         3.53404201822471    3.64474570270514   10.96064881861608
C         4.94810180890445    5.01562632344449   11.78515621677109
H         5.59039830197757    5.01464813763120   10.91440158599318
C         6.32105749756810    8.24611632001279   13.80496963533617
C         5.16452424759608    8.91435866339693   13.41446321284687
H         4.55923457634953    8.49670697266868   12.61935491310914
C         4.80258210131740   10.09596769961189   14.03177915400910
H         3.90562102064848   10.61367597595838   13.72413105450574
C         5.59973831388405   10.61979039358447   15.03737984268362
H         5.32088234024035   11.54594837027914   15.51847071731241
C         6.76037014503884    9.96602126661734   15.41720880726980
H         7.38977999674421   10.38668987179943   16.18750650338567
C         7.12964503031061    8.78549416248965   14.79802782195205
H         8.05812539284549    8.29989366437117   15.06200215547354

