31
CSD_code = ORUHIT | q = 1 | S = 0 | Stoichiometry = C10H16AgN4(1+) | MND = 2
Ag       -2.99165280376260    1.57290671205533   14.42333675212208
N        -1.50948831793444   -1.17881950486433   13.79125112204324
N        -0.95464436740067   -0.49095596796133   15.74135667552693
N        -5.09827269158420    3.59743224165697   13.15149858966898
N        -4.40378760867900    4.36650929281430   15.02506925871868
C        -1.71239505006665   -0.17793147776038   14.67120308768146
C        -0.64162431513685   -2.10059789201921   14.30081126819291
H        -0.34598604890336   -2.97625186796939   13.76111489976740
C        -0.29021427406754   -1.66505449237904   15.53520128090313
H         0.36692840553933   -2.09275274977649   16.26367140531144
C        -2.11126951847814   -1.28652345797504   12.49144327809917
H        -2.71743179721619   -2.19134494598108   12.42663514650750
H        -1.34217713675544   -1.32408940651353   11.71875475648635
H        -2.74855669230024   -0.41560560821389   12.31894604011822
C        -0.84241043057998    0.28597741205662   16.94425337496792
H        -1.48928860218425    1.16340630120440   16.86486909102320
H         0.18787111856023    0.61373932572351   17.09102002566416
H        -1.14837597675887   -0.30549265926573   17.80827634457232
C        -4.27081823091219    3.32448102529529   14.18015248296206
C        -5.73679321095141    4.78733637113563   13.34866037942758
H        -6.43877449919418    5.18966884861966   12.64809228565061
C        -5.29734150831939    5.27406805977796   14.53480228599726
H        -5.54812474669049    6.17626457888232   15.05307075633138
C        -5.29811291526918    2.76918286007288   11.99510298231833
H        -4.68890599938942    1.86686689373548   12.09195360840698
H        -5.00514568836241    3.30264479589578   11.08952887458224
H        -6.34740415446162    2.48338527876937   11.90941647624856
C        -3.71475268324320    4.52397503186045   16.27553322090787
H        -4.42782949290474    4.56632476344628   17.10028400258207
H        -3.12753742494763    5.44333891955929   16.27262276467262
H        -3.04528333777194    3.67301131830832   16.42446748250351

