36
CSD_code = ORUJOC | q = 0 | S = 0 | Stoichiometry = C6H20CdN4O3S2 | MND = 5
Cd        0.03493923093908   12.78079757945959    5.43159224923056
N        -1.77007952365864   11.36587348423834    5.73273614718200
N        -1.82169856900971   14.27275733566927    5.17286861145843
N         0.97279013229949   14.37274697377561    7.12309913085581
N         1.97256705034213   11.63042964107219    6.28469527437202
O        -1.36533967032139   12.41405391940038    3.08194468656235
O         0.47851633855307   11.11690843705495    3.90132559925675
O         0.43765438206714   11.78115490594869    1.53857576946469
S         1.02412786458895   13.81808628389902    3.49176815970866
S         0.07124534788776   12.12664090982281    2.88071808365344
C        -3.09476913900842   11.65516574638252    6.28752268712898
H        -2.98579898908546   11.90447211582824    7.35000897270282
H        -3.75197851450184   10.77548727015865    6.21353925625700
C        -3.77398933209972   12.80704883071484    5.54867790773048
H        -4.81963389273104   12.84653755941326    5.86101116699711
H        -3.74499164260835   12.59683025862151    4.47695957571544
C        -3.14566642297801   14.17882760530312    5.78942268278573
H        -3.82996503772695   14.93780616379978    5.37995808706606
H        -3.04789567209377   14.36150237898748    6.86645280755624
C         2.35980172949435   14.71728705946014    6.78580738800631
H         2.69402530412082   15.59510882803670    7.35992718055107
H         2.38190194963453   14.95949703023098    5.71883681912274
C         3.31752403209167   13.56015590088749    7.06355820395520
H         3.15500588438432   13.18237559119903    8.07782101722029
H         4.33601072444587   13.94717076642489    7.01017971383952
C         3.19126472197856   12.41294599579358    6.06117124992514
H         3.13579310273902   12.82955675298770    5.05096915340672
H         4.08724415116364   11.77776821446042    6.13305460724293
H        -1.54570144962664   15.24814520346881    5.07160154987713
H         2.05403935097381   11.10460706377725    7.15334858837642
H         1.87341649615609   10.96472545553389    5.51753852065285
H         0.39594184806314   15.19832349357691    6.98723611430506
H         0.91898645206875   14.11828961462102    8.10694970007463
H        -1.87898615426573   13.88854897342441    4.22137604057145
H        -1.82659084959151   11.38024724593125    4.70724155092302
H        -1.47911123467089   10.42471941061252    5.98960574622524

