31
CSD_code = ORUJAN | q = 1 | S = 0 | Stoichiometry = C10H12AuCl4N4(1+) | MND = 2
Au        3.34330188633698   -0.49194101445241    2.90579976862916
Cl        5.36431047838482   -3.68935810420503    7.22390003616471
Cl        6.34659086341181   -0.30186522264913    7.79156073515696
Cl        1.43337086812679   -0.47050405092531   -2.50584811580747
Cl        0.25867322032613    2.49736847960509   -0.90135160466071
N         4.35495522798217   -2.29858562790363    5.13587139433314
N         4.95214948404378   -0.25741275959070    5.47532807509382
N         2.40101575265118   -0.59687018709684    0.01593254762700
N         1.68811932239662    1.18946707896855    0.98499043476317
C         4.28209690311594   -1.05607897064317    4.62433036690775
C         5.07042905321420   -2.28887296274735    6.30749340717970
C         5.44876336165937   -0.99087242839363    6.52407522207493
C         3.78716074206862   -3.49209252721059    4.57207935752622
H         3.18699527737300   -3.22329774392378    3.70593678832335
H         3.16047858342273   -3.98883137636840    5.31252332033461
H         4.57958794480263   -4.17875512475046    4.27190680741251
C         5.14257290219039    1.16116629244614    5.34874587447998
H         6.20525015877448    1.39742523796957    5.40081525426305
H         4.63089261535334    1.68182325148258    6.15902832339260
H         4.74166314039893    1.48730122521380    4.39183018636668
C         2.41473459516890    0.07414843473486    1.18237751375304
C         1.66624452877548    0.08962706302502   -0.91857738953123
C         1.21425847336608    1.22611118036413   -0.30292338046181
C         3.04538514168957   -1.85154065037250   -0.25815990734280
H         3.64333616175541   -2.13748231058310    0.60406995236821
H         3.68741951731652   -1.75387626212979   -1.13344569413469
H         2.29882510684527   -2.62067463755337   -0.45941593268384
C         1.42504869388779    2.22264881247554    1.94831114972258
H         0.35074630166009    2.38627205850851    2.03087247193647
H         1.89500163294867    3.15567458341329    1.63490812081292
H         1.82372206055727    1.91657826329787    2.91273491600704

