46
CSD_code = ORUJUI | q = 0 | S = 0 | Stoichiometry = C20H16CdN4O3S2 | MND = 6
Cd        0.87385670829693    4.78735302308976    9.06613627509903
O         2.58103507125173    5.59981330171592    8.09482052147071
N         1.61777557118858    2.62404536633502    8.39519431703092
N         0.19115159147038    4.20215439154104    6.75533749538287
N         1.86772088214861    4.38612676448515   11.18892702608148
N        -0.72481037721617    4.89004236794738   10.76462333418155
O         2.42362509430548    6.92926682908608   10.09605855752702
O         2.88390282738004    8.02236578077945    7.94030259969781
S         0.21146504827520    7.04361034009011    8.41599562577642
S         2.24042663010715    6.95186633629661    8.64811462690388
C         2.13331748432033    1.69113724505927    9.18076441538128
H         1.80563694567703    1.71168405241573   10.21348818969587
C         3.02774257251972    0.73259900281275    8.73109934705157
H         3.42704954594270   -0.00742398386223    9.40675737528263
C         3.38897086189893    0.75005161309412    7.39163731761211
H         4.07809995307989    0.01776366127685    6.99709142751315
C         2.84604341292268    1.71735982405344    6.56659005222730
H         3.09084764477295    1.73708012275353    5.51661038950888
C         1.96304834699217    2.65614588292339    7.10532803497354
C         1.34729530247905    3.71787607254628    6.29068658258913
C         1.94592042675492    4.20842928302690    5.13168447068851
H         2.90585274549473    3.84027087583586    4.80644464941919
C         1.31434496792013    5.22596976285552    4.43663443935366
H         1.76937217738229    5.64514894140057    3.55130168306220
C         0.09862830957231    5.69951644416089    4.90025742399947
H        -0.42763483385206    6.48815921733561    4.38730455891879
C        -0.41537909956787    5.16403003289893    6.07337120859801
H        -1.35032437977069    5.52068396126492    6.48561385099415
C         3.18630671620929    4.27509856062855   11.22436327126956
H         3.62514297553409    3.59224825707119   10.50530563859871
C         3.98595486233527    4.97676259730818   12.11109292513401
H         5.05819978386650    4.86190218486816   12.09131351932123
C         3.37398944620672    5.85308495843904   12.99094624865612
H         3.96071270996936    6.44672732943623   13.67615187701868
C         1.99747362086740    5.97735197194399   12.96128562008285
H         1.50950082931616    6.68621026223865   13.61003822522853
C         1.26810120330059    5.22826708540978   12.03981023539473
C        -0.19433133099254    5.36134084583257   11.89900516264795
C        -0.99382031212419    5.96790055299554   12.87045611601501
H        -0.56742691658941    6.31725333775459   13.79675207850148
C        -2.34949692672087    6.10961064531776   12.63907788791649
H        -2.98192887962574    6.58275568404274   13.37562219330774
C        -2.88003990637583    5.63798894179546   11.44739269604031
H        -3.93002844476961    5.73916217772066   11.22512677665286
C        -2.02361937497376    5.03141135978635   10.54454093530011
H        -2.38607148729806    4.64159673419143    9.60114279684241

