85
CSD_code = ORUKOC | q = 0 | S = 0 | Stoichiometry = C40H36N4P2PdS2 | MND = 4
Pd        5.71018835408414    0.01437133697973    5.53560666203285
S         6.85486167258354    2.03077510889584    5.53557371585641
C         5.92468744024937    3.07500159333850    4.50193679324797
C         6.39699495643722    4.35967300118172    4.22230721745105
C         5.67823111935110    5.19982439308609    3.39987622741669
C         4.47631668192366    4.79055659808689    2.83144929740968
C         3.99384311099526    3.52661672759754    3.10295196909038
C         4.71158253654266    2.67156956659736    3.92817483908132
P         4.10116816428102    1.02678386670347    4.38352001501971
N         2.49324200095033    1.24716018802871    4.81307301370656
C         1.53303705714520    0.68741375748870    3.88290159929072
C         2.32218403503949   -0.28942197000978    3.01664119746092
N         3.67942576594610    0.23990936529632    2.94518789266272
C         2.14322898755252    2.08758280423525    5.86152624224950
C         3.14118548237532    2.50060235553644    6.74487551560167
C         2.85844394382788    3.40097496625590    7.75020410102075
C         1.56852195452122    3.88112644003104    7.91446257940584
C         0.56643763465930    3.44323450936161    7.06726617773079
C         0.84450728431145    2.55786604715914    6.04078196513553
C         4.68153771297400   -0.50701290895482    2.31209604509890
C         6.01996465748471   -0.12923742756787    2.48023500670682
C         7.02782733837041   -0.79699508369804    1.80663868762175
C         6.72775075353253   -1.85963841448458    0.97026704243175
C         5.40961220978983   -2.24939895123466    0.81638632153741
C         4.39250079369435   -1.58673562992661    1.48072811695295
H         7.32957842831541    4.67879636254990    4.66252154350140
H         6.05575990243252    6.19114604607721    3.19515773987378
H         3.92558618228758    5.45863104677279    2.18664354210396
H         3.06175433319649    3.18178710145018    2.67556929620406
H         0.73283234227232    0.16973844520120    4.42082907655872
H         1.08598605377688    1.47920532983083    3.26703583392509
H         2.32168692038779   -1.28879194625053    3.47012083934295
H         1.89334305578555   -0.34981498163160    2.01253790352848
H         4.14800948975553    2.08897297733226    6.65313630912049
H         3.65010596943936    3.72447811550129    8.40834675163802
H         1.34644995875849    4.58680015343754    8.70032120736576
H        -0.44461355302212    3.80204595027868    7.19437586245354
H         0.05207093719479    2.24477172226941    5.37866336086294
H         6.27556098656185    0.76200517793810    3.05537674254782
H         8.05276559904616   -0.48186213558267    1.93739423372550
H         7.51568292895208   -2.37209455081541    0.43953368006058
H         5.16198433281513   -3.07942750913024    0.17064237648023
H         3.37490505740380   -1.91489459524336    1.34064982342889
S         4.56490859034624   -2.00202742445797    5.53483126929822
C         5.49252905448159   -3.04748460245585    6.56931143800370
C         5.01899065197938   -4.33191108583817    6.84808767609897
C         5.73552402116212   -5.17218172631092    7.67234342925815
C         6.93624817549871   -4.76316048049752    8.24348169051902
C         7.41989191588903   -3.49951898537686    7.97266671440302
C         6.70443453403055   -2.64440038134473    7.14557141638679
P         7.31646346586253   -0.99996501960497    6.69099158138985
N         8.92543372816153   -1.22158459962639    6.26555680665746
C         9.88353913423785   -0.66411886236250    7.19927587138266
C         9.09321655172894    0.31506238436554    8.06168690727510
N         7.73555123740286   -0.21358706831661    8.13041391554295
C         9.27669411537812   -2.06583333515929    5.22054006320856
C         8.28128811368861   -2.47443228145278    4.33228154272440
C         8.56450267137618   -3.37793820923020    3.32989972681660
C         9.85242108872835   -3.86629481009174    3.17407939471234
C        10.85216119830315   -3.43330406057510    4.02651366300707
C        10.57357868016497   -2.54421429189173    5.04968193925797
C         6.73258786068581    0.53198427771062    8.76358499912580
C         5.39442145756998    0.15465216646681    8.59266333861528
C         4.38569984168724    0.81999016713233    9.26727229725467
C         4.68463663366785    1.87993487569360   10.10745097035775
C         6.00250523984539    2.26958871531892   10.26386361444369
C         7.02048790218027    1.60929206445895    9.59849505992009
H         4.08701732547779   -4.65049690082209    6.40620868360465
H         5.35682993010137   -6.16306251328959    7.87693549534075
H         7.48512994964502   -5.43116901043650    8.88990880888515
H         8.35124031771263   -3.15505003121600    8.40191775743475
H        10.68732389104177   -0.14899173178531    6.66425864683677
H        10.32593529714202   -1.45656016436758    7.81767538299961
H         9.09561219237457    1.31360072962145    7.60639753179818
H         9.51965799831045    0.37689178310373    9.06669098080833
H         7.27635333888777   -2.05675021933236    4.41800748282920
H         7.77477581253977   -3.69751455564847    2.66752544779574
H        10.07481553358032   -4.57446965173692    2.39056790362655
H        11.86168227518929   -3.79861722637253    3.90595224188616
H        11.36396041651900   -2.23469265745320    5.71592996003443
H         5.13945648042331   -0.73432144463685    8.01379561083002
H         3.36096932687136    0.50529291665017    9.13405645061004
H         3.89598680913302    2.39055074697102   10.63887157321291
H         6.24924486058360    3.09745564692010   10.91270148000372
H         8.03786180642684    1.93726190730830    9.74062887185908

