70
CSD_code = ORUMIZ | q = 0 | S = 0 | Stoichiometry = C30H37CuN2 | MND = 2
Cu        3.38591548381499    5.63334290221726    4.39316618254391
N         2.71944949147433    3.35560465452265    6.08600314775962
N         4.67484167238992    4.15017338988500    6.55171987935016
C         3.60674879925799    4.29863331586957    5.76685755154453
C         3.17874536637782    2.46055792206481    7.14544707953336
H         3.21170005787652    1.42933972491696    6.77947389553157
H         2.49659849701864    2.49638101292770    7.99934748847140
C         4.56558565861556    3.02133512771651    7.47305116737063
H         4.64900206107074    3.36228174016489    8.50854467173274
H         5.37055399079269    2.30344025227776    7.28527012904666
C         1.46313911054937    3.18570853967809    5.44845643619014
C         1.40795867049724    2.55083822728354    4.20547970675131
C         0.17476462391561    2.39408886716404    3.59534989644811
H         0.12243779077818    1.91039989153807    2.63044767021624
C        -0.99318928174316    2.85275834690945    4.18914052917045
C        -0.90976228529419    3.48623067284395    5.41955854076717
H        -1.80923786317571    3.86181776231652    5.88636158911754
C         0.30620596562817    3.66497765195963    6.06211359603061
C         2.66286344218068    2.09465379561117    3.52758460712225
H         3.23262384492115    2.96576399815701    3.19908895659734
H         2.43025442347512    1.48646507729437    2.65772425949168
H         3.29357332008191    1.51618621079543    4.20069432948407
C        -2.30877194936616    2.69901008446097    3.49059983466550
H        -2.43224317885348    3.50049347101631    2.76199312101099
H        -3.13470512432224    2.75112855959008    4.19563624733932
H        -2.35614389107383    1.75209453491682    2.95731344445143
C         0.37071441442224    4.37908612613450    7.37914908546849
H         0.37215011341258    3.66693732491141    8.20580734911821
H        -0.49275313968213    5.02822890601904    7.49944480858764
H         1.27222446891461    4.98562298732589    7.44460547001252
C         5.83935254335041    4.95826285690895    6.48675133689967
C         6.03488787098219    5.96564520147421    7.43146943016525
C         7.18142901329370    6.74118897301262    7.34852323409943
H         7.33552111979701    7.52806242937421    8.07317541427406
C         8.12253704810118    6.53969230902809    6.35020167096147
C         7.89880156037488    5.53736621280198    5.41666697304877
H         8.61936972915925    5.37960173113590    4.62707502184902
C         6.76812411263392    4.73907730839127    5.46676584506640
C         5.02087366184249    6.22494743855268    8.50546886968576
H         4.01233907847839    6.05494455820375    8.13309594068650
H         5.09313047796091    7.25251944996501    8.85242768698676
H         5.18880865224158    5.57005971112526    9.36191522303865
C         9.33705666373864    7.41035671206370    6.25376635296426
H        10.18586754706295    6.85114254441680    5.86697675950860
H         9.59794779806390    7.82640194155204    7.22382742959164
H         9.14107852627819    8.23771755861386    5.57141422750248
C         6.52130080374309    3.69457004145629    4.42271223217462
H         7.41060939876591    3.53806366264906    3.81831355116002
H         5.71129896020469    4.02310134089932    3.76887042202170
H         6.22843229057425    2.74505682100281    4.86776953801168
C         3.22956698992287    6.87317904640149    2.87495600943119
C         4.25969870960970    7.76647472496335    2.51658266061999
C         4.13948273866050    8.63991207790093    1.44609023455220
H         4.95602298979714    9.31202142118758    1.20936392336589
C         2.99086140428623    8.67515443801941    0.67213578571247
C         1.96412384389208    7.80412965596282    0.99730771561236
H         1.05585542161526    7.81391934161926    0.40610446368173
C         2.07648680935574    6.92637484305545    2.06522518085177
C         5.55094361351957    7.77361939175162    3.29727140387892
H         6.10882966173154    8.69224940890971    3.12320869545109
H         6.17961036455337    6.93378290385655    2.99517908880926
H         5.36685101622151    7.67345378413038    4.36672559210654
C         2.87528151901291    9.61399762629143   -0.49410738477018
H         3.37106539424027   10.55973872667615   -0.28077074282101
H         1.83167485002029    9.81075608544769   -0.73250519315824
H         3.34787967389946    9.17980657578927   -1.37718537071841
C         0.92386619945766    5.99417559698643    2.34684185334419
H         0.03495582903930    6.29105027346182    1.79269663194278
H         0.68215847994931    5.97683849958114    3.40953766369776
H         1.18077308063146    4.97390569689206    2.05642395780080

