39
CSD_code = ORUTOL | q = -1 | S = 0 | Stoichiometry = C12H16N2O8V(1-) | MND = 6
V         3.07590692041334   12.00592220401962    5.80370978846388
O         3.27261873591158   13.56020162789665    6.46718573114588
O         3.90075911627115   15.46925654255566    7.42271504638763
O         1.05550758057264   12.19230446455069    5.62214219001080
O        -0.38162046770550   12.46850544056156    3.94571574329210
O         2.93385313775571   10.66264738930515    6.83723202480746
O         2.43384495513536    9.03390349035125    8.26871450632746
O         5.08184835277150   11.76536402897485    5.54314533223239
O         6.40747439714665   11.08157475651883    3.89182942420698
N         3.04975462892848   13.19254493550085    3.96964425838597
N         2.99252055335526   10.40667610517505    4.31793332096002
C         3.32837749300334   12.31685238697376    2.83479810137246
H         4.40794338186810   12.15469059121152    2.76933932263901
H         2.99451222719067   12.77879054662969    1.88882534782001
C         2.63045433768650   10.98053317709570    3.02499245625329
H         1.54760948470445   11.13090964373994    2.99531136826658
H         2.90319659471538   10.29839127701385    2.20031322645614
C         4.05385235419772   14.26987675836433    3.94983340055473
H         4.02924901427029   14.76452602935146    2.96130729705476
H         5.03086470902473   13.79202138858201    4.07765885828522
C         3.90991628827208   15.33399336171288    5.03114863401836
H         4.81845213829441   15.93814787410995    5.05938333392619
H         3.07661603821348   16.01492260711819    4.83157616746298
C         3.69984435035494   14.75007507226343    6.45810436580323
C         1.67951020532788   13.70575455380505    3.89697367938030
H         1.38267546114330   13.94715610124087    2.86473384515523
H         1.58921325155610   14.60272727485678    4.51221327969043
C         0.67478807894334   12.68688908445932    4.53155840083586
C         1.99986502697340    9.36416200712638    4.62911078166098
H         1.96127269136708    8.64424298619954    3.79084442897785
H         1.02952312150340    9.86623689154468    4.70411579465035
C         2.22843576108311    8.59303689277202    5.92354592236213
H         3.04856875719696    7.87366387138549    5.83592960387519
H         1.32792083279911    8.02481653939096    6.16326562571286
C         2.53853209417907    9.50263716849554    7.14736431720685
C         4.36009760076876    9.88259440532232    4.28185333678737
H         4.59093629814931    9.39564565668108    3.32195785136106
H         4.49952372751416    9.16144736907761    5.08915458839711
C         5.39458076914304   11.01825749806568    4.58241929781293

