45
CSD_code = ORUVOO | q = 0 | S = 0 | Stoichiometry = C19H21Cl2NORu | MND = 9
O         9.91489994212700    5.96275628348324    6.13879045523170
N         8.99711596273474    6.58496550007973    4.19834004974250
Cl        3.82753197859948    2.90129204021417    5.51466152124855
Cl        8.87991851637678    4.38270075522624    2.28495491022225
C         8.59592409702724    6.34255008602170   -0.60830346026971
H         8.00868221892240    6.12067228173040   -1.49852611077416
H         9.06331751437433    5.41357243739275   -0.27115856838381
H         9.37991943873916    7.05232694060866   -0.86224335420895
C         7.72273035710385    6.86826274486100    0.48713035243199
C         6.49427869322375    6.20110873200786    0.79124856687878
H         6.18514440409283    5.36544110922381    0.17074780593622
C         5.61910821088894    6.71282281456408    1.76350519839213
H         4.62938050145048    6.28184932688359    1.87652981108440
C         5.98217978605827    7.83420885957381    2.55651715846012
C         7.25055178259548    8.41587435791020    2.31916760213068
H         7.53481782260295    9.31209858388650    2.86138532630778
C         8.07545357445662    7.98312262295249    1.24276557693980
H         8.97686680120434    8.53662178563299    1.00556353401889
C         5.01258244843994    8.42058021256325    3.55566391661597
H         4.17910467962391    7.71852028600779    3.66941125022670
C         4.45884743901838    9.74782269771784    3.02660745832020
H         3.72405901916774   10.14884722692881    3.72026129262417
H         3.97970188377698    9.60478121675746    2.06021846592610
H         5.25631879498065   10.47865837271068    2.90993640315919
C         5.66176984349975    8.60331061267367    4.92892227875685
H         6.13444617764936    7.67189905857681    5.24174038722510
H         4.90896046202747    8.87802228025786    5.66359792308536
H         6.41508619990754    9.38724265872374    4.90615372655978
C        10.32560216675605    7.16253015169264    4.14676519268947
H        10.27118938516697    8.24828662513727    4.02383208505738
H        10.87167157514347    6.73262814809609    3.30018198038445
C        10.92928119185127    6.74826679301194    5.50763220971640
H        11.82468403148965    6.13130426423024    5.40360950981096
H        11.14911803208138    7.60334661593225    6.15281880200325
C         8.87947856937279    5.90459261299903    5.29573369652012
C         7.67059838418921    5.15442614086309    5.47562819657514
C         7.31224301348715    4.44222945034408    6.61922234134658
H         7.96983720629562    4.43442894616441    7.47497951136513
C         6.11969506712611    3.75327617697326    6.63202516975202
H         5.80722503227770    3.19578717944934    7.50059424263914
C         5.32110481095702    3.77116039958295    5.49226217574607
C         5.68355910286673    4.45783211183510    4.34553309309615
H         5.04006716819573    4.40341896479123    3.47915915813917
C         6.86561908488086    5.18835759831396    4.31162163044052
Ru        7.58432762719037    6.27679593541270    2.75721152682835

