92
CSD_code = ORUXIK | q = 0 | S = 0 | Stoichiometry = C32H54ClNOP2Ru | MND = 5
Ru       10.05541460843805    4.36499393121981    5.42459745675521
Cl       11.33411060247245    6.34527438326237    5.26422068969261
P        11.78900613685342    2.83461464218655    5.42581918437666
P         8.65390316157361    2.54673366748792    5.30976122578975
N         8.47379124803719    5.34968124726092    4.44758502664591
O         9.88458645866010    4.84519505340493    8.35347442705267
C         9.90595726912931    4.62291007780275    7.22318502589059
C        12.37898474418051    3.03520526852315    3.63754370731464
C        12.87665632626027    1.76548705263548    2.94803090940335
H        13.23683990249046    2.02404911732023    1.95236138753240
H        12.08458546124205    1.02905395460473    2.82919855965357
H        13.69971137055327    1.30892368990722    3.49182539381057
C        13.44774890572252    4.12586382601094    3.56198834714686
H        13.59697363954828    4.42302764244952    2.52380272189603
H        14.40274662946038    3.77345068069430    3.94364728958809
H        13.13266756686271    5.00633082891192    4.12400117270240
C        11.12074199939735    3.56072947753486    2.92726468189955
H        10.66454411618245    4.37760845938733    3.53432375006335
H        10.38144830399823    2.77801614244269    2.75076719232737
H        11.38300988512260    3.99204900119965    1.96095888336951
C        13.21209032256139    2.69267096423412    6.65639805839673
C        13.77893593734444    4.10000330948530    6.85738611602262
H        14.36496965022708    4.13924177588049    7.77402931162709
H        12.96726303215397    4.82546931373336    6.93897184635867
H        14.42284262915852    4.40232236739911    6.03841154833283
C        14.30303783931443    1.70936935098983    6.24363360159958
H        15.03639126801503    1.63242318469631    7.04548927958608
H        14.82302396262772    2.04374798159884    5.34974521024277
H        13.89496773296427    0.71601077965139    6.06558735407475
C        12.58334163919507    2.24869979828482    7.98222126861697
H        12.34129211664704    1.18825611207230    7.98807916219503
H        11.67996245884795    2.82654455766080    8.18117394135301
H        13.28179607944556    2.42950627118121    8.79723822468336
C        11.05351888871918    1.12500107999212    5.42566315971887
H        11.74283590335642    0.41518015868475    4.96023485476431
H        10.95080965662041    0.85849892251562    6.47829237460741
C         9.66884799815816    1.06464876582530    4.77714626510395
H         9.16808458132805    0.13495547262751    5.05830670345352
H         9.73273402056443    1.07617572954793    3.68564195791691
C         7.64183589135971    1.84935271808618    6.75119210881715
C         8.56610568509805    1.38712227072689    7.87592111993950
H         9.30585958980336    2.15462605563505    8.09831330592750
H         9.07710827664082    0.46266543175493    7.61484384121895
H         7.98330007811658    1.20164656073468    8.77719988140100
C         6.74027517665362    0.69640873957162    6.31214153731123
H         6.12416814280545    0.38146602569971    7.15392005861609
H         7.31346429908882   -0.16751193360100    5.98202204259388
H         6.08178525567358    0.99914863515858    5.50404745167856
C         6.78635418864677    3.01753876806617    7.23766336698514
H         6.12262451061659    2.69916766094600    8.03995516254719
H         6.18126904016684    3.41513000662235    6.42400786404671
H         7.42363225450930    3.81698908423801    7.61250322062510
C         7.58038791462164    3.13271501701215    4.04670469596620
C         6.40026614066598    2.53203196845549    3.31295165717925
H         5.54465932127014    2.35531189332856    3.97489349681625
H         6.64077977354891    1.58903710897631    2.81691483269040
C         6.04927806935178    3.64530080601610    2.31728839030785
H         6.66474937630875    3.54509528773210    1.42061653067834
H         5.00175725685719    3.62256659361718    2.01808764525951
C         6.42628614630536    4.93622171983902    3.04795292323794
H         6.65250926759931    5.76143309815077    2.37731135873131
H         5.61802070817119    5.25999578656280    3.71149438829013
C         7.59664456138033    4.51494705554122    3.90561083970112
C         8.34910074354643    6.74151561757662    4.24288608873819
C         7.86340316213083    7.53604293342292    5.29307323556712
C         7.73326618547836    8.90352444513238    5.10890253191754
H         7.35499278027905    9.51609905328109    5.91358228478022
C         8.07869541135366    9.49401414160995    3.90998564378312
H         7.97324038674796   10.56108977113247    3.77748486392033
C         8.57245044383684    8.71327515523099    2.88419065001445
H         8.86077325279427    9.18469710447047    1.95649556218602
C         8.71201768562600    7.34026446870162    3.02325607971904
C         7.49298446085076    6.92089785791783    6.62157420713151
H         7.76168168471661    5.85733418688226    6.58965962178167
C         8.28515756017904    7.57020477291257    7.75749638763746
H         9.34903958696035    7.53944703023175    7.52990813825224
H         8.11631619584021    7.03380378630358    8.68910581664942
H         7.99356615093572    8.60772656282078    7.90036407199277
C         5.98745426994943    7.02212790920523    6.87062888257667
H         5.67232495414026    8.06226240765196    6.91221208881182
H         5.73028195808197    6.54492931289331    7.81413314594286
H         5.43504132458439    6.52954569308699    6.07264519733029
C         9.30938332470180    6.54910509744559    1.87911120851972
H         9.21513235359376    5.48017156677114    2.10018170905978
C         8.60045189936090    6.80527901904536    0.54618607473846
H         7.52751021118194    6.63999968081953    0.62541944817480
H         8.99305690210464    6.13271399726620   -0.21511015651749
H         8.76030608428963    7.82538455626767    0.20691252766521
C        10.79587482158150    6.89770640389418    1.75099167221668
H        10.91476999969616    7.94190654622460    1.47162877136050
H        11.26998622863306    6.28425107779993    0.98538860204254
H        11.30624499813066    6.74754944481371    2.69964065187709

