90
CSD_code = ORUXUW | q = 0 | S = 0 | Stoichiometry = C32H53NOP2Ru | MND = 7
Ru        3.23881225265125   18.32655110657552   14.39886696150346
P         3.74926983931162   18.29370624597570   12.07697038000240
P         2.20219940150474   20.35158534372851   13.83837231363508
N         1.22410230399314   17.60207542597254   14.35380294562209
O         5.78637891812644   19.46231287956255   15.44267750222354
C         4.86869896542338   19.01708332964287   14.89512425458408
C         5.58236314506870   18.62136392704169   11.64755643260441
C         5.87875269478842   20.06554706736609   12.06566621003288
H         6.95422911080660   20.21516967968611   12.15001168809291
H         5.43187649957985   20.29055207685112   13.03264249331112
H         5.50281146828369   20.76941858902292   11.32591398948687
C         6.45780219320063   17.66691803183826   12.46170485880958
H         6.12579963814308   17.62907848266262   13.49840808346439
H         7.49343840731846   18.00364320179920   12.44129334964893
H         6.42497997243349   16.65828905107497   12.06153496651815
C         5.95322241481306   18.49045899862236   10.17036462922400
H         5.94189011761660   17.45629485954390    9.83991242768396
H         6.96894955845999   18.86315709657102   10.03690992572641
H         5.30013308800773   19.08104661266396    9.53174508932091
C         3.15223511879267   16.83990846724750   11.00876077622054
C         1.75172221147164   16.53087104579842   11.53220545880168
H         1.81734139032429   16.24052165420840   12.57715311365579
H         1.30991369271459   15.71347310990760   10.96453382552858
H         1.09041399367070   17.39336276539730   11.45311439726974
C         3.04681934715378   17.09616285569565    9.50352763972926
H         2.37534959781135   17.92048956687334    9.27915066515749
H         2.63256314364658   16.20127608413141    9.03870739596854
H         4.00484494701880   17.29056870173710    9.03733350260862
C         4.03046786742232   15.61879631155880   11.27835285210759
H         3.51685535776316   14.71501153588094   10.95197116692028
H         4.22714264460347   15.53403798192667   12.34682217392796
H         4.97492443831924   15.67342649782359   10.74345477683192
C         2.86828462658125   19.69033409706135   11.22919214987398
H         3.37683840887543   19.94925828677232   10.29645017548602
H         1.87668430621258   19.29664512305607   10.98601330371758
C         2.67954455253641   20.90801866177949   12.11886690284219
H         1.86629617033450   21.52553236321603   11.72386738380255
H         3.58329589127232   21.51648642467727   12.16378422462945
C         2.26338802947379   22.04270728345133   14.71527549650477
C         1.39074180887010   21.99472257133692   15.96976118832882
H         0.37865585685234   21.67620697667642   15.73094292303817
H         1.33906216366885   22.98374396944055   16.42539634486501
H         1.80139000185644   21.31162821221109   16.70705999009809
C         1.79232076856965   23.19802122289577   13.82727020612009
H         1.71283439360030   24.10181538321155   14.43168258515922
H         0.81614711554378   23.00112546629305   13.39223090226176
H         2.49623839309743   23.40264442146501   13.02486205018623
C         3.71706517145259   22.29322838923278   15.11935822358260
H         4.07576632403325   21.50986571434320   15.78377716943715
H         3.80325245498765   23.24678154561616   15.63965995992538
H         4.36904187812029   22.32516766457517   14.24725329140346
C         0.53793895352216   19.80098543432360   13.69816286783595
C        -0.75466646762362   20.54759638993090   13.45235269932619
H        -1.05559415384449   20.47209321355922   12.39928368509496
H        -0.71826877379810   21.60607339038540   13.70841388200277
C        -1.73960177213103   19.77617870502998   14.33840262737833
H        -1.69648075174410   20.16715508938476   15.35796695070844
H        -2.77001662447797   19.84894679712454   13.98913802146640
C        -1.21273039326903   18.33855966893121   14.31397030557237
H        -1.64322691517156   17.80850944855806   13.46274850176178
H        -1.44342181841920   17.78285444490982   15.22380215341209
C         0.27968809631030   18.51013057232996   14.12384548414927
C         0.98686990462763   16.48649603766460   15.17596661712371
C         0.06257548455942   15.45306066482268   14.95610365383709
C        -0.07853052697397   14.46956440555804   15.93256933527371
H        -0.80345287584361   13.68378139051496   15.78217323797788
C         0.69109787213884   14.45343091363682   17.07518162271257
H         0.54845853892168   13.68372016163647   17.81917296409916
C         1.68419618938604   15.40393778796266   17.23787300246655
H         2.32259171640790   15.36242172497004   18.10638919133523
C         1.84139261103524   16.40972700338187   16.30070689694461
C        -0.68226895528877   15.24752376703114   13.65425651329540
H        -0.49262030333675   16.09874194111276   12.99854017814651
C        -2.19410199195987   15.08894233745575   13.84264856635408
H        -2.61112355977946   15.89704849469550   14.43737806031211
H        -2.42550679109801   14.15166117184639   14.34244207752135
H        -2.68982103394216   15.08144281715444   12.87329028808634
C        -0.12982730860244   13.99357767493381   12.96314695202073
H        -0.37546756734901   13.10165962334530   13.53433638152759
H         0.95210054173729   14.04683354914503   12.87373588502678
H        -0.56084836614473   13.89159587683466   11.96870636936730
C         2.90963257996446   17.43694111276386   16.44191043167542
C         2.54548171360608   18.79300228243884   16.43606728009315
H         3.17845076545049   19.48072185861768   16.99562063281608
H         1.48738935103781   19.04415674176049   16.45785140356008
C         4.13583401509898   17.01263064723690   17.22544829706127
H         3.88212656277440   16.96122795961664   18.28645215552738
H         4.94596500584327   17.73050894774671   17.11477970921226
H         4.48888899932595   16.03452845203914   16.90524192307292
H         3.74974599286977   16.87723913790842   14.36585247736105

