45
CSD_code = OSAHUN | q = 0 | S = 0 | Stoichiometry = C19H22ClNORu | MND = 9
Ru        3.84694489056440    3.53340488524066    8.11051582097500
Cl        3.39100514742310    2.64971357224245   10.24184798195984
O         2.14051703158958   -0.09731413862401    7.15056300856775
N         3.54905887326951    1.59902801729626    7.50956010302163
C         3.35803487445208    5.72080831697187    5.52164585631935
H         3.76873366058944    6.67491743186624    5.18624491021215
H         2.33467586789291    5.88763795825644    5.85335780175326
H         3.33952908777143    5.03576975637907    4.67685313635499
C         4.19412383443460    5.17048119520780    6.63956469133507
C         5.13711759791691    4.14024064513800    6.41853952411886
H         5.25168351997560    3.73428880667356    5.41741998670840
C         6.06900503304462    3.76658315277296    7.42816696337119
H         6.85747005020302    3.06659899432736    7.17861999394692
C         5.99870483768090    4.31634263852398    8.70478817885755
C         4.96873896078925    5.27523700955103    8.96387357180142
H         4.92684125628871    5.74320138008218    9.94393431618160
C         4.13357697325394    5.74860518331303    7.93884260435709
H         3.47718126056675    6.59334616382512    8.11937769917716
C         6.99239138509044    3.95676979655487    9.78410177033137
H         6.69133666702145    4.46765972546707   10.70526101933564
C         6.98631270904323    2.45275653262344   10.06385591834824
H         5.97296867749081    2.13366909313941   10.30479588126166
H         7.63084216311756    2.22800944892341   10.91026411018815
H         7.34375586589085    1.89168107945975    9.20251733917801
C         8.39151087880860    4.44532882866914    9.39585897200688
H         9.09218693572186    4.24159263257841   10.20199635667706
H         8.38595527897056    5.51722590095159    9.20598367361294
H         8.74467772142657    3.93938499185789    8.49959429070692
C         4.41536526526604    0.43712595135134    7.48660740245128
H         4.91967299368694    0.34146650984699    8.45362892179514
H         5.16827878026159    0.53318768607781    6.69800863397539
C         3.42502916345817   -0.71945556679285    7.22215458321973
H         3.61058792605100   -1.23060093234245    6.27341041231498
H         3.40584836410924   -1.45242458101776    8.03221663647168
C         2.32183186500729    1.20944127522389    7.36490031885842
C         1.29740799800689    2.20841685631309    7.47358477854669
C        -0.06638165192053    2.00377783030138    7.26884066056887
H        -0.42294696501233    1.02628357407815    6.98034772440546
C        -0.92942198872703    3.06265861688050    7.45194795483697
H        -1.99039490151011    2.93361226947035    7.29793186104430
C        -0.43220570893132    4.29627320917303    7.85646546882747
H        -1.11660458986543    5.11856077843999    8.01378521079139
C         0.92290824002055    4.48545727165894    8.07405383527618
H         1.26434900286067    5.45077735370231    8.42459392092832
C         1.83189516693473    3.45437289836188    7.86927619501366

