40
CSD_code = OSALMO | q = 0 | S = 0 | Stoichiometry = C17H16MoN2O4 | MND = 6
Mo        1.71232129469072    0.72965928006784    1.26420888051051
O         3.65344665063073    0.94515129982046    1.89367067715253
O         1.99634301307203   -1.06277566965186    1.72252908123270
O         0.40393939466473    0.56548248872204    0.26263162950285
O         1.20766355261543    1.46457972824138    2.65030424300769
N         2.28248040509663    2.46318932038221    0.31610842590881
N         2.75344085575453    0.11708939930995   -0.62180344157338
C         2.90155339725181    3.44316986163882    0.88726701627064
C         2.14456448921073    2.39718306303475   -1.11062810109025
C         3.02644093921375    1.20020971793821   -1.53900468806112
C         4.51312375642857    1.56264548850509   -1.45142429175600
C         2.75183725450281   -1.08423108934574   -1.06188894856133
C         3.87594214656661    1.99498387942282    2.60343430003061
C         3.47878675684339    3.30959784895291    2.17626435834186
C         3.83125369356018    4.43190475904366    2.94816558136692
C         4.52064887293554    4.29609282236183    4.12368709901138
C         4.91707564952638    3.02144251253142    4.54537153427191
C         4.63316034706658    1.91026870375312    3.79626237794977
C         2.12770070616855   -2.19048010991550    1.09302606784888
C         2.49974273826456   -2.25551083990074   -0.28071848316703
C         2.61350636942490   -3.51499381921277   -0.89527672907152
C         2.38469978803055   -4.67722845518809   -0.20152135571071
C         2.02580288864346   -4.61464668663332    1.14561647447037
C         1.90145270747119   -3.40221154501766    1.77876844642161
H         3.06732313517983    4.37483880516499    0.33298847586366
H         1.09836490157806    2.17428988758802   -1.34986711141644
H         2.47260657851587    3.31938444728458   -1.61011459780629
H         2.78115101635525    0.91478635831253   -2.57466369320002
H         4.77934967137544    1.79640591449942   -0.42034832795853
H         5.12067507232827    0.72072507460358   -1.77677556330893
H         4.73519098516556    2.41859655415055   -2.08473254651650
H         2.95503820858784   -1.26691417757481   -2.12582968350890
H         3.51455192978860    5.40795288222085    2.60845932170588
H         4.75930250248195    5.16027618810989    4.72376670727746
H         5.45775725875876    2.91541826056067    5.47486880515578
H         4.93499967713091    0.92495723760969    4.12035156632513
H         2.89172803395241   -3.55660545374198   -1.93936918880010
H         2.47874477287972   -5.63353069502200   -0.69215737053800
H         1.84294031950799   -5.52763258506392    1.69283535962584
H         1.61744826877654   -3.33602065756310    2.81943769279186

