36
CSD_code = OSAREG | q = 0 | S = 0 | Stoichiometry = C13H15N2O3S2Tc | MND = 6
Tc        1.11022961549365    3.53377959688805    7.66628355328748
S         2.38079468139993    3.03262305066769    9.82343436003343
S         3.62133916933281    3.42324157370522    7.22069479484930
O         0.17890890643122    4.11700256168324    4.79606680566115
O        -1.73684720338110    3.50857377948277    8.82340426328060
O         1.48403390585391    6.51863762329303    8.29536084441436
N         5.00789892225678    3.01266925307382    9.44691886840386
N         1.17887732650384    1.42979464362482    7.37974646083390
C         0.50579630270989    3.89166280543240    5.87612067786581
C        -0.68006778317403    3.51510203322513    8.36818971305025
C         1.29714850700357    5.41734497246122    8.03990480837426
C         3.79850764701055    3.15658828735272    8.89145355704703
C         5.13653988911523    2.82261883687195   10.87791779663551
H         6.09300901042078    2.32932849040558   11.06610105172994
H         4.33220123972187    2.15562023443872   11.20512232209078
C         5.05171034805176    4.12816432769875   11.66453593595321
H         5.09761370501405    3.91329464837031   12.72871894291966
H         4.11122770377109    4.63150314746629   11.45479621961813
H         5.87047181405817    4.79479689882717   11.40748107871178
C         6.20403373051461    3.15222795096717    8.64085201335523
H         6.01306240244835    2.68793971362614    7.66790057845958
H         7.00788205299351    2.60142615702185    9.13496036930866
C         6.61402898247856    4.60694296764216    8.42681959364623
H         7.47754127885309    4.64677671132653    7.76848579480597
H         6.87115067413707    5.08430757387319    9.36850284415735
H         5.80138262962226    5.16074714998135    7.96346123775621
C         0.80796371506887    0.59323486751296    8.34920702869310
H         0.32258898781353    1.03663421566755    9.20868682643076
C         1.02267072540359   -0.77225898237709    8.29573496670318
H         0.70620463746929   -1.39637516995112    9.11625379571058
C         1.64833235340238   -1.31092227181354    7.18269100498888
H         1.83834958322222   -2.37088577328800    7.11039961006403
C         2.01823601808210   -0.44845959490726    6.16298863485724
H         2.50104455941607   -0.81256132563588    5.27006774450493
C         1.76384302157946    0.90393633518842    6.30328416699565
H         2.04569094020200    1.59684271021808    5.52145173467515

