51
CSD_code = OSECIZ | q = 1 | S = 0 | Stoichiometry = C16H31ClIrN2(1+) | MND = 8
Ir       10.49837814628852    4.47187355331291    5.48445778157531
Cl       12.31530602551969    5.65875418082757    6.33916823633248
N        11.94517143685825    2.95292389829724    4.56762118893001
N        10.81115698140102    3.10119101829631    7.19124671037325
C         9.54373200734510    5.44485157265815    3.73032981291800
C         8.60078331877063    4.42801033784450    4.15712814504272
C         8.18884468630715    4.73914185125530    5.47199896188258
C         8.91170433975052    5.91210434306205    5.90660190033517
C         9.67134023378870    6.39748841014665    4.78289360264161
C        10.03259929331783    5.65994502298908    2.33616924811486
C         7.97124275011917    3.39348170859181    3.28668018750799
C         7.06783971135851    4.08865016212558    6.20486698822389
C         8.65367922923685    6.69835407964452    7.14716413498079
C        10.33520861736673    7.72536413003522    4.69631158718357
C        12.13991773299592    2.48959566640596    6.99119014504529
C        12.26523771843835    1.92266402739112    5.58172461779221
C        10.80466983633079    3.79058034598726    8.48792429485826
C         9.77458126224967    2.06235903504182    7.23013828097419
C        13.18524000125408    3.60813445814344    4.12686449544761
C        11.35352970639696    2.29778106893725    3.39570023007142
H         8.59269030877164    3.14926575506386    2.43007626193961
H         7.02133512702272    3.77618745441598    2.91028394254305
H         7.75894608752844    2.48010308327260    3.83906562069860
H         6.97841595804967    3.03358238506641    5.95693730997326
H         6.13577957354106    4.57509523781547    5.91122456960856
H         7.16607502268874    4.19963705556858    7.28206475213663
H        11.06423390596147    6.00641222540931    2.32679815443529
H         9.42391074055506    6.43179644120395    1.86287005196264
H         9.95527759537801    4.75978151223888    1.73248029263740
H        10.76091889706437    8.01769119631146    5.65279771531290
H         9.59156900288826    8.47270462002513    4.41383740219981
H        11.12430957954488    7.72869052048960    3.94913826533885
H         8.18782676540123    6.09337283440681    7.92001145471751
H         7.98441215685301    7.52796058250453    6.91634223334414
H         9.57793554040054    7.11656871672076    7.53933289415824
H        13.70235456406945    4.04717363894694    4.97508668089369
H        12.94972714343308    4.40421484199392    3.42445573842502
H        13.84609284636147    2.88826613357721    3.63516088006763
H        10.40063102761375    1.83924212167651    3.65157580087336
H        12.02142078857031    1.52189224935971    3.00739825806508
H        11.19516259790353    3.03014265114344    2.60895297881193
H         8.82698684219004    2.50126272789113    7.52886708631406
H        10.03461606408591    1.28728495645422    7.95809320006700
H         9.64483577007147    1.59545222744514    6.25708890124919
H        11.55164653995466    4.58077338174412    8.48869255001488
H        11.02580166291180    3.08972169788424    9.29740873694493
H         9.82842441873064    4.23448505330931    8.66608467942409
H        11.57993981908973    1.08201893904336    5.46081044447270
H        13.28118831015211    1.54349568907349    5.43221965840263
H        12.88949187423770    3.26880148183595    7.14284363191895
H        12.30658043387267    1.69307371711738    7.72641930283795

