52
CSD_code = OSEHAW | q = 0 | S = 0 | Stoichiometry = C20H29NPRh | MND = 8
Rh       10.62895003722100    1.56446744788778   11.30864072289255
P         9.63133754023242    3.02752171359762    9.90248215667134
C        12.04527768452569    1.54579828686537    9.97852848701161
N        12.84715516697560    1.45411243075993    9.15923228433128
C        11.64806244617884    3.06992899604940   12.23092114321910
C        10.90531898903681    4.04781757182975   12.88982177346513
H         9.82428864030340    4.07322456949456   12.78916623999625
C        11.51642707765349    5.00216775543933   13.68625475663925
H        10.91474476155139    5.74901006997260   14.18708056809084
C        12.89103363537517    5.00013888519174   13.84082338154340
H        13.37077627202690    5.74373032046839   14.46092114643812
C        13.64328530476005    4.03766841289038   13.19219286295854
H        14.71851528797536    4.02674038074544   13.30420505982266
C        13.03010591827662    3.08178544252882   12.39671140657699
H        13.64817831214942    2.34767342223528   11.89656372629333
C        10.57552327137463    4.52559177879322    9.44544856878422
H        10.04462524981908    5.09389340832273    8.68238549330118
H        11.54596884906062    4.20886121911925    9.06717474746870
H        10.73332947411730    5.14261704516166   10.32772536476027
C         9.29968057359888    2.32263678459084    8.24128068657641
H         8.86037419714334    3.07166262914102    7.58323707590025
H         8.62281299018935    1.47419687864630    8.33104090944352
H        10.24478947522825    1.97478866359324    7.82688657037605
C         7.98185392337648    3.75546933200690   10.27874443797576
H         7.66610390708815    4.40239230371184    9.46119294337569
H         8.03342933969670    4.33623051444947   11.19696807886443
H         7.25203828238575    2.95833401784856   10.40759785676179
C        10.35176420269418   -0.70677181748829   11.40031747666562
C         9.07150174296810   -0.12637142022392   11.51291145480767
C         9.05311086777434    0.70637966003110   12.70254694163531
C        10.31639059954643    0.59748414977902   13.32998716231126
C        11.16705579133653   -0.19009689588393   12.47660899134235
C        10.77969553039407   -1.78021853068997   10.44587664140176
H        10.75779719174049   -2.74751485795327   10.95279723326209
H        11.79301556029278   -1.60685043849388   10.08833632065692
H        10.11849201631233   -1.83068053876064    9.58367735978944
C         7.85398487728673   -0.50720776281901   10.72415221979348
H         7.33254224226022   -1.32229450462312   11.23138161639867
H         8.11924144251308   -0.84675816016050    9.72461640176671
H         7.15886219746479    0.32602984866900   10.63129950516310
C         7.81176698597631    1.26286721842608   13.33644216904743
H         7.34836403673919    0.50034509673780   13.96710865841113
H         7.08202949334513    1.56736228628999   12.58866945865677
H         8.04066920137373    2.12311042126253   13.96276939299383
C        10.67707686681075    1.08805314268281   14.69853789777082
H        10.49363786010915    0.29364446733673   15.42543448806294
H        10.08175972570405    1.95367297161622   14.98092874727838
H        11.72748319492897    1.36680886445762   14.75536497736414
C        12.50890109537992   -0.73997492240227   12.86284469654994
H        12.37847639228835   -1.66843964253710   13.42379803997645
H        13.05465947360457   -0.03632445113489   13.48781555242932
H        13.11013480477774   -0.95461446429268   11.98174814710151

