109
CSD_code = OSEHIF | q = 0 | S = 0 | Stoichiometry = C56H48Cl2N2Pd | MND = 4
C        -8.83336080655697    9.04162310113235   12.23384797842426
H        -9.03130459485238   10.04771053781297   11.89381247139575
C        -8.72914388887476    8.77549404601134   13.58887640434657
H        -8.84755914587242    9.57225426164343   14.30838059470509
C        -8.47720069180556    7.48373439842760   14.01916996514722
H        -8.40941804066822    7.27408025476147   15.07639294768486
C       -11.89092877849212    5.39307145288517    9.58067320913365
H       -12.82171139665505    5.92689425127011    9.71050662650980
C        -8.68519204889040    8.01991302400746   11.31276229170149
H        -8.76776130967360    8.22735260251726   10.25491396197845
C        -4.20256498940142    1.51892644735918   18.48432628997636
H        -3.67013800242120    2.14182377652411   19.20374102466623
H        -3.59742065127921    0.64104082299609   18.27373682388865
H        -5.13495022198762    1.20047324541623   18.94610300325088
C       -11.84436165198103    4.26356917341580    8.78456751650428
H       -12.73738439494968    3.91190303928821    8.28854508670459
C        -3.55088746667125   10.28396507229741   11.41085476346581
H        -3.17875421929510   11.27176343227009   11.18461547004366
C        -1.11376271528726    5.11469712386653   12.05312548572232
H        -1.05416233864889    5.64979832411777   11.11699027031083
C       -10.64788625593666    3.58001408871928    8.63574194804002
H       -10.60476632895668    2.68971309209717    8.02587513913899
C       -10.74857544149418    5.84725972138741   10.22049614201892
H       -10.80787556989992    6.72642319060700   10.84575215834366
C        -0.26728352126285    4.68468688893391   14.25339255168142
H         0.44448804413978    4.88925840142873   15.03984781285972
C        -8.32340763787892    6.46315612602232   13.09643802079056
H        -8.12795817318726    5.44505764114567   13.42463477357445
C        -0.20090042222415    5.38288364057518   13.05918094636175
H         0.56317365784935    6.13174638047904   12.91122796461800
C        -9.50807899579327    4.02961508464429    9.27339490230320
H        -8.57690134299728    3.49259534665116    9.16611928746187
C        -7.03000541805832    7.23476356974604    6.16032015911893
H        -6.26795341562744    7.85915575392808    5.69991834603378
H        -7.96566044886895    7.78776781816367    6.20403922208417
H        -7.18621482270437    6.36401540315759    5.52322284432411
C        -0.98101671668865   -0.66642055939254   13.57809316527713
H         0.07211495722196   -0.90528564842427   13.53565485750200
C        -8.43043705552164    6.71875753907597   11.73700849278139
C        -2.75088699208140    9.37952222796430   12.09059832042788
H        -1.75210208247124    9.65753412489222   12.39193423342050
C        -5.26812391138484    6.68727722817602    7.86432316307639
H        -4.51537944797218    6.92380716174046    7.12603973352045
C        -4.82645618245302    9.91447685677491   11.02056797076382
H        -5.45504303836634   10.61304004047441   10.48944296685821
C        -8.25759439279102    5.59988462911825   10.74215252640815
H        -7.90186530974264    4.69767660012535   11.29432839672771
C        -1.24438265993637    3.72348751370929   14.44186433677686
H        -1.29614147420689    3.17767194494160   15.37365485127706
C        -6.82118068879430    5.02477073086969   16.08501455229263
H        -7.21439903876288    5.14131807568084   17.09175390700211
H        -7.62090458198584    4.64495929426418   15.44791237497777
H        -6.51604614154938    6.00084007946552   15.71582052033542
C        -9.54580590316223    5.17422180806389   10.06539154029178
C        -1.38066122220789    0.66052891766660   13.58428737385811
H        -0.63108421520536    1.43719332853995   13.53894676809776
C        -1.92078825802763   -1.67967439393667   13.62251335521323
H        -1.60536360097500   -2.71285915106968   13.61836941425901
C        -4.85922882129351    6.27409054704170    9.12152031871350
C        -6.60758755191905    6.79104813793316    7.52627876437600
C        -3.51912405955205    8.25546818897026   16.84347919896056
H        -3.21067103590188    8.88225325448703   17.66651046202992
C        -3.31437531977513    6.21652352806201   15.59281083950263
H        -2.83179101936049    5.26535304161622   15.43639169050607
C        -4.47506967563513    2.29278421272400   17.23187809470294
C        -2.91938116292640    7.02415241263138   16.64356027668936
H        -2.13988429761048    6.68572724632535   17.30919711199947
C        -3.22477598123656    8.11599319618170   12.38516805260579
H        -2.58957057703811    7.40725177705192   12.89711204045313
C        -5.69081166250901    4.04350493075706   16.07885911323056
C        -4.52045118011467    8.67989941344372   15.98491561220617
H        -4.99865742420891    9.63555189438424   16.13869812389456
C        -5.43769784868950    3.29052550779859   17.21237691778127
H        -6.01824535686904    3.48214903363597   18.10333367183952
C        -3.67031859500160   -0.03925944268485   13.66623958903673
H        -4.72089895518389    0.21088938272206   13.68652773332066
C        -4.51226497006272    7.73857074896776   11.99655095677725
C        -3.26906204510803   -1.36092834725554   13.66214277926509
H        -4.01055027062471   -2.14571623310155   13.68473619372872
C        -7.55187397742699    6.42190625011312    8.47203862721280
H        -8.59959389893805    6.45571986461205    8.21197439147617
C        -4.94647857646555    3.79948400307715   14.91584083017059
C        -2.09314168360372    4.15511999292647   12.24426082628348
H        -2.81184592337204    3.93262628240368   11.45849646916878
C        -2.16635632095784    3.44839781969044   13.43578761744993
C        -7.18900458305751    5.98812922222674    9.73585046297213
C        -2.72789626791920    0.98558184926194   13.63827659124851
C        -3.78760868190121    2.02569412542311   16.05949178621055
H        -3.06235770936890    1.22569782022350   16.04230928294799
C        -3.24197960367010    2.41170576135380   13.63428015732010
H        -3.94379110112229    2.47097400521751   12.76891776647591
C        -5.30510577584156    8.64835152404326   11.30404801618360
H        -6.30495781570137    8.37428208245207   11.00860577020823
C        -4.91447098955059    7.88295489995484   14.92787144511571
H        -5.71005711880925    8.20989612558258   14.27353694136870
C        -4.78543071416579    5.79793265549718   13.60602337889831
C        -4.30969448567215    6.64144060189908   14.71848399717908
C        -4.96604577859602    6.36542836258745   12.28554723415939
C        -4.02103495662694    2.74051683380247   14.89557281816655
Pd       -5.84782064904057    3.75521240874562   12.07870129285283
N        -5.14384576202619    4.55050749111036   13.74133734187831
N        -5.47014867203657    5.56336645805733   11.38841548676804
C        -5.82649112525931    5.96311001588524   10.08645374389132
Cl       -6.68176013523965    1.91220903705353   13.05292030559252
Cl       -6.17099579140787    2.81833019998123   10.06478561079144
C        -3.40177943008214    6.07140609918953    9.39560125081859
H        -3.06648715143975    6.64610609295223   10.25657613917177
H        -2.81110931905595    6.36400462445975    8.53129713432273
H        -3.22259678639895    5.01374617377771    9.59069251653721

