79
CSD_code = OSELIJ | q = 0 | S = 0 | Stoichiometry = C31H43CuP2S2 | MND = 4
Cu       -3.65161053495810   11.09142095320419   20.56211564052438
P        -2.51269874271968   11.23104289097004   18.58345658252720
S        -2.46956831877665    9.22738518275353   21.59252976741628
S        -2.10507163701856   12.09395190879101   22.09150482421258
P        -5.75840207463318   11.16940402019359   21.35463899740549
C        -0.84495019868533   11.99374838948881   18.77546474653318
H        -1.00512423159054   12.97093610917388   19.24255742899773
H        -0.33119291823117   11.37329121125306   19.51692959402812
C         0.00870792944580   12.12875413878945   17.52191475224810
H         0.98548590959744   12.52199555281293   17.79521676667274
H         0.15768484348526   11.16363408483549   17.04419136259675
H        -0.44005135356554   12.81239028787695   16.80510509650469
C        -3.22941781950751   12.13385002288551   17.13393423413854
H        -2.53974810599270   12.09214805507280   16.28799390692694
H        -4.14164260675432   11.60283460384914   16.84724090654928
C        -3.55776956140289   13.57178825150539   17.51305124032532
H        -4.13088972022109   14.05982622442220   16.72688640417944
H        -4.14039918358070   13.59066371801581   18.43377147039493
H        -2.64818061825583   14.14386793606262   17.68051240335038
C        -2.12495461732348    9.58774078282569   17.83806463893039
H        -1.77894563516504    9.71049427160567   16.80813624810375
H        -1.31652307666685    9.15963527330108   18.43778498620200
C        -3.34743394911619    8.67908049901168   17.89916698582172
H        -3.11006487926073    7.68832603460974   17.51731334240566
H        -3.67739667317300    8.58141524491496   18.93288012487665
H        -4.16890538708993    9.08694428855412   17.31227511345759
C        -1.69962923361372   10.49109605800587   22.36727774535161
C        -0.63513401692083   10.24942084690113   23.35710834994794
C        -0.93980413707240   10.36474518991683   24.71666453632907
C         0.07522636460153   10.29570120834511   25.66161420287415
H        -0.17826244486238   10.38586604701444   26.70840651113863
C         1.38769562179651   10.10891599933980   25.27016790382021
H         2.17373860629372   10.06080238079609   26.00955166545099
C         1.68851012646098    9.98081232648460   23.92809988450307
H         2.70949388647991    9.82489478658084   23.60921859332247
C         0.68917119219602   10.04341911566719   22.96269158839181
C         1.08740093178573    9.90224255915215   21.54755776527692
C         0.67518134549281    8.81155502088107   20.78960018975124
H         0.01254730507474    8.07962417805813   21.22609659093660
C         1.12236400738665    8.65722310821505   19.48902281840147
H         0.80700575459027    7.79792325188929   18.91347877392034
C         1.98736628834057    9.58431297060082   18.93237798489005
H         2.34373041278104    9.45555915497776   17.92030459531698
C         2.40263998779326   10.67240027256928   19.68193555657592
H         3.08243560888759   11.39655157598001   19.25553420028924
C         1.95711132603018   10.82992647363235   20.98182718281546
H         2.27766439358641   11.67887783956293   21.56907519565622
C        -2.33113673239970   10.53305105037451   25.18165630525834
C        -2.70955839792963   11.68332977768996   25.86433581500582
H        -1.99334605490269   12.48237638966164   25.99064941610462
C        -3.99199707942102   11.80881773783944   26.36611142239389
H        -4.27862861353024   12.70932977745227   26.89063113390252
C        -4.90259817120962   10.77725311344675   26.21082233624057
H        -5.89986566383204   10.86746874157933   26.61863729652723
C        -4.53109273437968    9.62857822165040   25.53076290468129
H        -5.23406751738076    8.81499809425134   25.41665417024179
C        -3.25655974902305    9.50976880239697   25.00762110513406
H        -2.96814776540708    8.61450140137970   24.47606931335694
C        -6.72830398538474    9.59947341195454   21.29569043515614
H        -7.78085336014852    9.80882920105291   21.51286320234677
H        -6.65203928567076    9.23276217509838   20.26786923942964
C        -6.16331662691109    8.55406346371932   22.24883026050585
H        -6.60954434617873    7.58051622307171   22.05552559153112
H        -5.08510607693944    8.47113850064900   22.11815156552987
H        -6.36265053369639    8.82369015193511   23.28258056353695
C        -6.15604145492281   11.80254249898746   23.03933948817386
H        -7.24289351397706   11.82791097438666   23.17394831649548
H        -5.73071870139797   11.08515237515021   23.74704827072579
C        -5.53095864349548   13.16996223843572   23.28708266950015
H        -5.64875270115339   13.45428184571474   24.33048636768482
H        -4.46560324170565   13.13796618590159   23.06302995536477
H        -5.99113574302426   13.93629535225856   22.66673740901658
C        -6.78918989376909   12.26388491298269   20.28236958044864
H        -7.81362876811231   12.30994246647255   20.66185370245144
H        -6.35124947030555   13.26332603813986   20.35249759210285
C        -6.75001762926027   11.78765776445542   18.83603263063037
H        -7.09665819310849   12.56583404257616   18.15934307588807
H        -5.72454152032936   11.52312125021629   18.57315323707981
H        -7.37578799705391   10.90973551776684   18.69596622723611

