69
CSD_code = OSELOO | q = 0 | S = 0 | Stoichiometry = C36H26FeN4Se2 | MND = 6
Fe       11.69246149723894    8.88302903979906    1.34651302721854
Se       13.55917594048775    9.23311493127158    2.78463413937571
Se       10.85389292348505   11.09980456064917    1.61151587983897
N        12.13726339687380    7.03968798628237    1.10734316216789
N        10.75472423671572    8.25975036588595    2.89729957874429
N        10.20367231240138    8.60290293743828    0.15741958334329
N        12.61919155848737    9.41474402929007   -0.25673025370589
C        12.88647396912409    6.44530869684931    0.18651824814982
H        13.39936352789960    7.09130418046276   -0.51004857109294
C        13.04013784563497    5.06543370692052    0.10771573637265
H        13.66734955358870    4.65339309221179   -0.66745006927896
C        12.41396507890581    4.24344953964745    1.02047039238726
H        12.53356416323468    3.17162981951851    0.98613284829311
C        11.62298840708328    4.83502244823636    2.01740997707203
C        10.94189537962779    4.12224922288404    3.04271923026553
H        11.01976388319278    3.04513885696135    3.04820614557305
C        10.22975899130528    4.76894092705344    4.00163308501088
H         9.73379110714683    4.21429740398840    4.78459030618415
C        10.12864881679277    6.18720316991136    4.02089293219725
C         9.46280739392612    6.93068044013011    5.00803004442411
H         8.95549130777577    6.42629388398471    5.81645422970903
C         9.50204018483424    8.30553886021804    4.93004628083993
H         9.03211181796567    8.91706339968801    5.68384764011388
C        10.15675812311716    8.93031398858874    3.87019254732342
H        10.19792068456455   10.00998640408922    3.81345566482988
C        10.76679503234085    6.91078956957206    2.99477236818957
C        11.51748851402949    6.23808543879782    2.00394911547854
C         8.96543983946387    8.21128923549202    0.41845048231347
H         8.71558437824253    8.06287009490776    1.45814908932372
C         8.00887220917759    8.01578737058680   -0.57339696519298
H         7.01749230953127    7.69869078952532   -0.29007366863826
C         8.32805312912736    8.24210508088126   -1.89561659503424
H         7.59787493791223    8.10874210340235   -2.67933090847781
C         9.62631461045554    8.67211831770076   -2.20749731297134
C        10.08732195212693    8.97793552024751   -3.51832451335068
H         9.39727265056705    8.85659627971298   -4.34033703021842
C        11.35054239635574    9.42432172858405   -3.73493551563855
H        11.68382710706398    9.66693419812660   -4.73318680342924
C        12.27233566862942    9.59901505132093   -2.66469579048322
C        13.58237904161143   10.07811973591339   -2.81458718693471
H        13.95689289763018   10.33449057755117   -3.79378085416312
C        14.35669447907691   10.22489169266651   -1.68513819004096
H        15.36373492646096   10.60559803084337   -1.74881924686300
C        13.84282361282924    9.88967494391119   -0.43511154901257
H        14.44384870352468   10.00904638730047    0.45546689165522
C        11.84502143184489    9.28680932628675   -1.36051351691231
C        10.52427287572073    8.83272507627516   -1.13415273105517
C        13.83623613423001    7.49553621313210    3.54942518770971
C        14.62925239076785    6.56112103752033    2.89406939957733
H        15.13976949969099    6.84501658913166    1.98423046280497
C        14.75522999004634    5.28107963840959    3.39755667858939
H        15.36538501433546    4.55684736479713    2.87537400581649
C        14.10285003204117    4.92388976140949    4.56629665384428
H        14.19707128595186    3.92032113200909    4.95542620176680
C        13.34209614315146    5.86310949085165    5.24151396010251
H        12.84632128369793    5.59604114099361    6.16453954933194
C        13.21059213371492    7.14389826250471    4.73889007145846
H        12.62258229867641    7.88208367498567    5.26672081431683
C        10.96583406521421   11.87928063888731   -0.13260983857705
C        12.13188352709066   12.51726818122287   -0.53800397447841
H        12.94957166269181   12.61511914724744    0.16205714520636
C        12.23809435590223   13.01196735875657   -1.82351564323316
H        13.15003647942584   13.50141167994495   -2.13598795993615
C        11.18209496008875   12.88251394423429   -2.71110605255271
H        11.26967625605542   13.26472547532131   -3.71803765534808
C        10.00760169556190   12.27540873549874   -2.29928902143946
H         9.17399386679308   12.18816607897724   -2.98254557145211
C         9.89641791287976   11.77800345102584   -1.01460296075637
H         8.97741420683916   11.31267256160248   -0.68390280666030

