109
CSD_code = OSEMIK | q = 0 | S = 0 | Stoichiometry = C42H64CuPS | MND = 2
Cu       -1.34859382633923    7.89167706532292   14.45485541933626
S         0.32718715101580    6.46381979542038   14.85631192498693
P        -2.14549062046538    9.64087829196900   15.57662154346578
C        -1.92399410385992    6.73300101971008   12.70523716674185
C        -1.73165079917461    7.94420865827460   12.00494660989766
C        -0.41011980707431    8.22286074932560   11.32496472457180
H         0.20246760310626    7.31811277350008   11.39159745205003
C         0.33263395125747    9.34350433755940   12.05339121859774
H         1.29900861967399    9.52350130483875   11.58807781171323
H        -0.24189870946453   10.26788997790118   12.03284351717515
H         0.49891034926766    9.05301841175289   13.09249725126516
C        -0.59655464971140    8.55563761837945    9.84432730676853
H         0.37288832480842    8.63228047284822    9.35706140069885
H        -1.16881273408290    7.77336562606635    9.35045298149860
H        -1.11768927965464    9.50116224152289    9.71282402397257
C        -2.78103801621049    8.84814792026033   11.91494087217616
H        -2.63111345008379    9.77447962901254   11.37825485070919
C        -4.03807966251796    8.57631011317090   12.44443221356092
C        -5.16972299084813    9.53559354940688   12.14431432920039
H        -4.81454237137812   10.55351152529487   12.35504547459623
C        -5.50544023244602    9.44979964601316   10.64999207814908
H        -6.29850208598531   10.15099752571616   10.39872557773075
H        -4.63583472754199    9.67818043291154   10.03933321987556
H        -5.84041802440905    8.44476019205242   10.40206648241179
C        -6.44087842844004    9.29132419545639   12.95438800618537
H        -7.16436672112417   10.07620203116769   12.74255006264021
H        -6.89148935904569    8.33974410383574   12.68186780361007
H        -6.24391683618121    9.29141246359853   14.02379351395547
C        -4.20206031057769    7.40595352931851   13.16899993497745
H        -5.16031457684685    7.17507353054354   13.60591143774704
C        -3.16660699636391    6.49216759792997   13.32475445520073
C        -3.38355942037018    5.22264947412118   14.11604265431801
H        -2.44885410024551    4.65343740817765   14.11249760855003
C        -3.71972623251631    5.55380638468186   15.57105112640130
H        -3.78214792118615    4.64134048735211   16.15932923715713
H        -2.93658825103723    6.18367242744684   15.99417074913215
H        -4.67125578087093    6.07707098215540   15.64676315528631
C        -4.46770725064733    4.35203219392501   13.48002993983357
H        -4.57061122641196    3.42120600063935   14.03326660165343
H        -5.43015987460689    4.85906119278730   13.47957830205939
H        -4.20242048254309    4.11350056463193   12.45248049823634
C        -0.93965804279855    5.62479365637798   12.56766860284567
C        -1.09224880285809    4.77211316958140   11.48132304751049
H        -1.90650394237417    4.94905446275652   10.79109657378085
C        -0.21999180740149    3.71902239711646   11.28143538943995
H        -0.34676063586708    3.06146773332783   10.43413983828627
C         0.81835171026916    3.51658447891674   12.17714884669003
H         1.51017852947702    2.69837778078119   12.03318252865332
C         0.99101424438234    4.35210910865817   13.26726152173268
C         0.10576751875719    5.42140014011690   13.47633917517299
C         2.11018989661335    4.12946626101448   14.21229116453469
C         3.33247412141987    4.76749429186245   14.00045944012275
C         3.52689276578806    5.70034151722681   12.82686212951876
H         2.63313890357101    5.65180135986452   12.19632972235498
C         4.72541552572848    5.28813652839598   11.97106611052637
H         4.79638480236946    5.92714004435332   11.09253917169906
H         5.65473851456881    5.37283149667951   12.52883831838416
H         4.61617343134225    4.25727033812545   11.64023814451565
C         3.67191914726320    7.13926616786575   13.32587127966504
H         3.73228446781320    7.82970979339198   12.48605841185580
H         2.81148452024929    7.40117825073872   13.93706154312699
H         4.56871348243655    7.24991403401039   13.93107838154480
C         4.36520650232017    4.55736287411135   14.90189558159272
H         5.31298154826586    5.05483786480756   14.75059231548329
C         4.21218722177512    3.73076984068656   16.00267466839478
C         2.98850248045719    3.10879543574926   16.19631194970358
H         2.84946841561848    2.47176210677053   17.05672482638450
C         1.93444049025955    3.29337495844920   15.31615687396577
C         0.60124599294447    2.62984303584187   15.57723503101758
H        -0.03809123133960    2.78661609666713   14.70229079193452
C         0.74349247152656    1.12167085044851   15.78704441881058
H        -0.23954638633738    0.66048137865112   15.86514289780042
H         1.27059348777615    0.67117625393945   14.94847783254348
H         1.29380008944767    0.89957857045549   16.69800165561660
C        -0.07487771786663    3.29280991413737   16.77930047254765
H        -1.06959465348073    2.87840499711024   16.93556582826088
H         0.51123846640850    3.14021291747474   17.68277293408638
H        -0.16146248176571    4.36256232766684   16.60480157487027
C         5.35447373688742    3.52388088285548   16.96868977221702
H         6.21125114316833    4.10893331596621   16.61416523953518
C         4.98341702914374    4.02581113969232   18.36547771954858
H         5.83611316529803    3.94568761008999   19.03747283821751
H         4.67147547321338    5.06687731391454   18.31958403719671
H         4.16432174240093    3.44288461112863   18.77928501938523
C         5.77172965551015    2.05252312206170   17.01421901785731
H         6.63081490141682    1.92101490277618   17.66965361518406
H         4.95908760081838    1.43285594257349   17.38535399049468
H         6.03850668034947    1.70508264600656   16.01827381364708
C        -1.34917987394043    9.62638936287555   17.23894734996423
H        -0.28192182959967    9.78945146047768   17.06756978657414
H        -1.73251312686894   10.44453773473790   17.85501653994108
C        -1.53571450462279    8.27237651284731   17.91323830669543
H        -1.02221984652617    8.24950612737708   18.87180704999657
H        -2.58855866514969    8.05250979725386   18.08094428581079
H        -1.11260011770269    7.49005743552541   17.28277987852166
C        -1.85137086206739   11.38146082866692   15.01616999823202
H        -2.27823002951777   11.44460824419673   14.00982041240625
H        -2.39763938744263   12.07780647325385   15.65783708202646
C        -0.37165355772027   11.74378011159042   14.97797354837963
H        -0.22255714805033   12.66673756688638   14.42085984475910
H         0.01941408260828   11.88863070023391   15.98202252872536
H         0.20421685729987   10.95519353946540   14.49761886180072
C        -3.95945526759383    9.69894460638820   15.94798737839627
H        -4.42060608756415   10.07577377418249   15.03044647913835
H        -4.28521298149532    8.66267154925751   16.07233074871048
C        -4.40950912168069   10.53141282560506   17.14267447708156
H        -5.49737128730255   10.55581359828163   17.17800231278487
H        -4.05410327050330   10.10423583263977   18.07662134613438
H        -4.05548428826231   11.55726455075962   17.07298718730476

