56
CSD_code = OSEQUZ | q = 0 | S = 0 | Stoichiometry = C16H33MoNO3P2 | MND = 6
C         6.96674334806859   13.94117899341555   14.01710562973921
C         6.77486215715880   15.49770497151243   11.75986639334740
C         3.00686029020464   11.90527233970619   12.19132088467744
H         2.54901814979523   10.91438595104831   12.28376265737746
H         2.33266177230736   12.64398851396669   12.64099375789822
C         3.23836957434496   12.25840485967424   10.72704617168019
H         2.27877160805749   12.40255859591449   10.21815380342654
H         3.76165870730894   11.43989786959174   10.22912338268529
C         3.87117613910713   11.93631734320627   14.93222597014929
H         4.69326274246684   11.52375315138175   15.53381478907702
C         2.64895985840561   11.03160601955959   15.09691564887194
H         2.44984527452170   10.88939818068183   16.15806658219145
H         2.79714657952439   10.04924815871080   14.65353132919996
H         1.76551372851476   11.48402171956261   14.65251951859582
C         3.55903125210161   13.33131079588374   15.46187304874523
H         2.79207177242462   13.81383129231436   14.85792351424088
H         4.44865816184460   13.95773163265447   15.44324852748179
H         3.19798737446880   13.26886230551993   16.48767505594511
C         5.28417175363889   10.28668068078166   13.12370013248056
H         4.62002726838256    9.61079462360616   13.67750578632305
C         6.64695895644714   10.32275575110241   13.81163480854934
H         7.03663577407912    9.31347803402281   13.93660959964526
H         6.58909437160889   10.78921956379161   14.79510280085062
H         7.35973175370327   10.88727824129128   13.21227538510177
C         5.43425264429325    9.77960749062160   11.69475416100101
H         5.96754772905958   10.51049458566177   11.08660057011896
H         4.46715551796787    9.57076152861644   11.24063491328639
H         6.01212550153558    8.85616972316996   11.68848880432088
C         2.95245393349373   15.07428731261470   10.51351755029690
H         2.34839655295882   14.79778332823946   11.39220284373029
C         3.49950817454109   16.47661261319530   10.76488178318234
H         4.06546082847688   16.84656172921033    9.91386277868414
H         4.14990872551969   16.47708952524685   11.63805052812925
H         2.67679702598681   17.16696379865754   10.94685937339494
C         2.05399076483934   15.06898888222137    9.27823316697137
H         1.19160078951262   15.70904797750493    9.45993448321168
H         1.68331902577610   14.07436721100859    9.03739942623010
H         2.57947895776280   15.46129414691767    8.41084609990269
C         4.81643970201865   13.61342796891862    8.76021892146578
H         3.91208660069641   13.50254044706430    8.14885947320531
C         5.71278329218993   12.39764500054197    8.54210657621156
H         6.04844952696998   12.37316662368193    7.50601102035992
H         5.19754761352433   11.46014349551667    8.74019694539771
H         6.59767341496682   12.45476640807647    9.17251408664241
C         5.57619727910437   14.87205875510384    8.35049865961792
H         6.40251497067818   15.05010993451434    9.04086164946852
H         4.93380135503163   15.74873389284586    8.34823027199836
H         5.98910555057576   14.75594884380206    7.34906795861955
N         7.15101612364282   12.92602215139136   11.62616963023545
O         7.64372497613368   13.95289548373912   14.94271145515189
O         7.35993950008761   16.41764445582463   11.40364769163919
O         8.05849100588646   12.33947242750074   11.14925265836063
P         4.56326644300018   12.00696080996705   13.19572876152300
P         4.29888946012390   13.77563306547671   10.54700759910519
Mo        5.88706465967140   13.87213207844337   12.38848719448319
H         4.73079398560064   14.77668871592408   13.11326778609667

