73
CSD_code = OSEXAN | q = 0 | S = 0 | Stoichiometry = C32H37BFeO2 | MND = 8
Fe        4.55494083013918    3.96991950066789    3.27676235218434
O         6.53041686252622    6.03289347567068    2.82942390858757
C         5.93772122915917    3.00382450800699    3.68920693395254
O         6.94101972203476    2.41519284569859    3.80325463618209
C         5.72446750766999    5.23868802639692    3.05183377877387
C         2.38555452415417    3.97630624192407    3.56784708009971
C         2.82781471039660    2.71860184591220    3.03098455512658
C         3.38380512389404    2.95290371847855    1.74015596969719
C         3.37822240891584    4.35196605595244    1.51953627767526
C         2.74186022112699    4.98427054792477    2.64955526583155
C         1.55920912807900    4.13698663675195    4.80338724887349
H         1.84075964617616    3.40527560817756    5.55669976410857
H         0.50298705719795    3.99151612255473    4.56866946153874
H         1.67675704900619    5.13178227394251    5.22561031885388
C         2.48128049224977    1.38163737587011    3.60900402087061
H         3.15175638543870    0.61021917129786    3.23814706878962
H         1.46272152917233    1.10484805124318    3.33027783984902
H         2.54013270544826    1.39739426037689    4.69498829033890
C         3.83100463028766    1.90683231677331    0.76865024413987
H         4.19790106543091    1.02556852968812    1.28819152577603
H         4.62961559825367    2.28376409550102    0.13523702365090
H         3.00044187430404    1.60443626281054    0.12814345226163
C         3.75395387530005    5.04774361358700    0.24849341009617
H         4.11050777894803    6.05519838115186    0.44751951926643
H         2.88766461761368    5.11732577416798   -0.41215304483356
H         4.53792220240586    4.50538061898931   -0.27355672368730
C         2.36993850856202    6.43260370336505    2.72282967163541
H         3.14731577360326    7.05592269409352    2.28802086503738
H         2.22170512196985    6.74421838915925    3.75293634457070
H         1.44391284887874    6.61209374157228    2.17350413463797
B         4.99536212656270    3.56732227484904    5.13496784510538
C         4.63371042322562    2.91736603044930    6.42949745207919
C         5.18965514971172    4.17147827638185    6.48511017467134
C         5.61786569229076    5.17118017061351    7.42221013218492
C         5.25850379899913    6.50861227519567    7.19922150610600
C         5.67512361553600    7.47775170801492    8.09483213788519
H         5.38883597982910    8.50751225628265    7.93105395000464
C         6.46051848641441    7.15957956293615    9.19536455908315
C         6.82510912722852    5.83513882576325    9.39076447055638
H         7.44295597074594    5.57592199802103   10.23967407735753
C         6.41316247878656    4.83399713732640    8.52652063705875
C         4.38571086342864    6.86644788137836    6.03448399015520
H         4.70040322473496    6.33433243810330    5.13645827242962
H         4.41061773352441    7.93763623820328    5.85142766081404
H         3.35471538141030    6.57810289948210    6.24204302929346
C         6.92405669925987    8.23272256645261   10.13324461390283
H         7.22272941380186    7.81150310637903   11.09029128003863
H         6.13793323923935    8.96651837805501   10.30009500094749
H         7.78283596874266    8.75362515713926    9.70827167780615
C         6.83358147602320    3.41231460852014    8.75191023328873
H         7.27310518046968    2.99615280627758    7.84597641852317
H         5.97731482840055    2.79198959773612    9.01695167954189
H         7.56381895647963    3.35123076441870    9.55529346763209
C         4.07220391513348    1.91405632347251    7.29223888226882
C         3.21490471315247    2.26454741246201    8.34706798308525
C         2.66399755403763    1.26200828456098    9.12897892909784
H         1.99978925818421    1.53319048483519    9.93822635345835
C         2.95002009274545   -0.07728832396779    8.90676488345333
C         3.80401943798657   -0.40877542754427    7.86299858854119
H         4.03731837358294   -1.44879584546169    7.68115882109241
C         4.36046001680900    0.56136960209156    7.04820971921371
C         2.88349382277666    3.69945764214100    8.62909469348545
H         2.67912935513787    4.24378183463806    7.70906928538051
H         3.72057476826445    4.19518146136821    9.12109360680722
H         2.01550923254111    3.76888313980575    9.28087650739923
C         2.33310091044991   -1.14564097498163    9.75726777584254
H         3.01414944233243   -1.98512680388503    9.87918219250342
H         1.42236573858032   -1.51799494110668    9.28611514114663
H         2.07056035349421   -0.75778012097490   10.73884211359227
C         5.29899500168898    0.18278313755095    5.94375449763979
H         4.98701833824712    0.63129211093774    5.00258660958593
H         5.34067306532516   -0.89755707580538    5.82789128899547
H         6.30417976634752    0.54635673418158    6.15595666704647

