71
CSD_code = OSEXER | q = 0 | S = 0 | Stoichiometry = C30H35BFeN2O2 | MND = 8
C         6.16904679837300    6.00100271519960    3.64080637534375
Fe        7.50770668337216    4.95103495352240    3.94817272125358
O         5.35237264254701    6.79740275076623    3.46922936645781
C         7.12528476322487    5.56505192922738    5.72201234193189
O         7.28554236425516    6.60801220209935    6.27392315657758
C         8.89032530635505    3.81383804494743    2.66668881774022
C         9.48152608074846    4.16078761989667    3.92391743083492
C         9.53985164826480    5.57647277564944    4.01079805745094
C         8.87020817703993    6.10058818148200    2.87638197692160
C         8.50669372384309    5.00303408921489    2.02233137861020
C         8.74274970978257    2.43416801486559    2.11571149547785
H         9.53756244968540    2.22103225012920    1.39845030479276
H         7.78597313668263    2.31934018090157    1.60948663598591
H         8.79696423755477    1.69512263768821    2.91018872951480
C        10.16289051877751    3.21499134261793    4.86117210178694
H        11.23285845572551    3.17018703388682    4.64858442938724
H         9.75898848900484    2.21051402099047    4.76949520409442
H        10.03133131430499    3.53364140971895    5.89293535924035
C        10.17529327465454    6.39666764174260    5.08170995112465
H        10.97315317112774    7.01298797680719    4.66714109156669
H        10.59234739644921    5.76411852197028    5.85985445821259
H         9.44064299314217    7.05943490726462    5.53811127621206
C         8.73696913222927    7.55461984903108    2.55853246409834
H         9.64777140276641    7.93468818568902    2.09275018281202
H         8.55787330170817    8.11602564730487    3.47159143700314
H         7.90639244401419    7.72871398358358    1.88018688192201
C         7.92927035375884    5.12941444351085    0.64851688368779
H         8.71494722131831    5.35686823969402   -0.07462160850778
H         7.19543648853008    5.93161835923028    0.61114651963127
H         7.44651160576401    4.20392022769258    0.34551582144500
B         6.84491553599312    4.11525262900108    5.69241453584134
C         7.08726293252838    2.65289843679113    5.63425903651023
C         6.46550442704000    3.14107804359719    4.50282663492199
C         5.60055014298373    2.58012039935910    3.50432162775199
C         5.31616633945323    3.26591548924376    2.32026628927988
H         5.76848015946545    4.23670404167367    2.18157190888720
C         4.49579916750671    2.73183408700665    1.35476243190704
H         4.31993100086665    3.30517442064886    0.45953104540232
C         3.89148905274036    1.47560690475046    1.52484535885908
C         4.15292607711233    0.80066121980025    2.72699564487896
H         3.69335380614866   -0.15303369668074    2.92980168561308
C         4.98834970486413    1.33457750661981    3.68198077231866
H         5.14775913664435    0.79199682903982    4.60248867667064
N         3.10073377436598    0.92413845852927    0.54307906477877
C         2.63399976649020    1.75518318110971   -0.54129828315724
H         1.96180981740830    1.18049375483891   -1.17418114362698
H         3.47325431227654    2.08563815999143   -1.15788982106998
H         2.09592169531955    2.63919454486382   -0.18013785584436
C         2.38070071149863   -0.29774223110744    0.80456706323278
H         1.86208481730610   -0.61037557988340   -0.09929888755177
H         1.64049701201283   -0.18410080106968    1.60664571254283
H         3.07582237704378   -1.09274892645227    1.08064418989539
C         7.50357913938370    1.43566843227896    6.24898287896568
C         7.69555040533056    0.26203875290399    5.51062548756137
H         7.49611905859342    0.26649164574084    4.44831748350106
C         8.15906645359492   -0.88833827051689    6.10470976668977
H         8.31434690889350   -1.75878642573983    5.48768162256424
C         8.44148281650824   -0.93459802813785    7.47986568529441
C         8.25204471474740    0.24601086795028    8.21805645744270
H         8.44796037410375    0.26091560527994    9.27780349056979
C         7.80924934720926    1.39854002850584    7.61414946542808
H         7.67433590351512    2.29618966403714    8.19999445674821
N         8.88501508212508   -2.08363546006769    8.07828172451977
C         8.91695645598562   -3.32858281647973    7.35370868195005
H         9.06265265560819   -4.14989431923334    8.05211420377774
H         9.72985723541786   -3.35361584729912    6.61785672763440
H         7.97083898201839   -3.49498123817509    6.83352840768814
C         9.37359597263612   -2.06543287746665    9.43421654021781
H         9.89231544820072   -2.99804567469992    9.64487849565215
H         8.55744571754694   -1.95488011259934   10.15753388114779
H        10.08189027648751   -1.24613093394558    9.58037761181537

