72
CSD_code = OSIBEZ | q = 0 | S = 0 | Stoichiometry = C24H43BClNPRh | MND = 6
Rh        4.04915946699716    3.35737989692265    2.87087059323595
B         2.90077181182717    2.07792587655736    4.39556987042068
N         2.62679364200933    1.83561357731189    2.94099775542149
Cl        5.70783456422815    2.56793496631812    1.47871390512868
P         5.09541870561964    5.35311964019244    3.05955689801538
C         2.03453776406575    3.11844038395688    2.87670678728146
H         1.31104291541942    3.44818888842126    2.13958303439214
C         2.35422120101246    3.51270046442640    4.19867436699772
H         1.99568172694892    4.38283146790571    4.72251036779195
C         3.29044375800820    1.08848238896567    5.54479195000688
C         2.28603533584790    0.68637208372667    6.44127493791409
C         2.56980748786029   -0.21924698545968    7.44791831031300
H         1.78331576841940   -0.52554940663231    8.12445121657138
C         4.13505116838658   -1.70852820273269    8.72208880625060
H         5.08108884794387   -2.21854224715622    8.55748771369147
H         3.34336126960899   -2.45110712850237    8.80366064887200
H         4.19378592159311   -1.17757064464169    9.67276136574121
C         5.71326494509756    0.98956078101067    4.83338483174566
H         6.09554471895652    0.13632953865495    4.27411130763473
H         6.53386309513362    1.38814925636503    5.42915434085752
H         5.39470806230331    1.75589210606955    4.11603802266991
C         4.83931276777697   -0.32765127357643    6.74402386235765
H         5.84403447560084   -0.71159864032186    6.85775528001988
C         3.84627137909580   -0.74318333695410    7.61247777649208
C         4.57857159999277    0.57573258511837    5.72059840675048
C         0.89620931296607    1.24202199874353    6.31384837360682
H         0.24169214945053    0.82336538189330    7.07477940812815
H         0.47416412655512    1.02101562013491    5.33482356406297
H         0.91496717889506    2.32479478408045    6.42710834834498
C         2.37803443201822    0.70403845694533    2.06624001344630
C         1.03682617697577    0.06521287274321    2.45525564212037
H         0.79570127295862   -0.74388808799457    1.77040308191586
H         0.23367857417915    0.80011608803929    2.41710750374312
H         1.09316074608678   -0.34037018558971    3.46360753677200
C         3.51431968912473   -0.30288217524002    2.25218586170796
H         3.34829449744331   -1.17895592918917    1.63080311769394
H         3.57506917318646   -0.61576450484930    3.29206147592686
H         4.45803250333930    0.15639174363156    1.96493146751207
C         2.34069625280338    1.18311804681473    0.61125859806418
H         2.31644262347397    0.33135299688691   -0.06327702272705
H         3.23669372706017    1.76679156123144    0.39646482097121
H         1.46252139493360    1.79624253661656    0.41675285552717
C         5.94933346553373    5.92068612638026    1.49837088618752
H         6.71365604314109    5.14235230313183    1.37917578331724
C         5.00550324179246    5.79444002906297    0.30366502475706
H         5.57593857936000    5.79646825628331   -0.62334746784756
H         4.29113445830872    6.61237092648160    0.26497510923434
H         4.45806422783977    4.85146324812065    0.36409888874086
C         6.63326982802239    7.28238919104366    1.52142013942038
H         7.31887435921631    7.35631648324283    0.67804823377934
H         7.20511242163027    7.43177071165190    2.43389307115560
H         5.90589642867517    8.08518866366788    1.42349392062161
C         3.96220294342897    6.71071089440332    3.69222296300396
H         3.50799062790700    6.23247085775800    4.56930079884783
C         2.84929546490995    6.95883126611469    2.67720219821650
H         1.99279789279102    7.43270395427831    3.15525924229900
H         2.52424954791337    6.01433162535275    2.23845002691916
H         3.19171302132319    7.61420814188818    1.88048371877792
C         4.58039192132057    8.02567516847480    4.15335928613929
H         3.79254346930813    8.66409637228519    4.55396314737514
H         5.05476835322519    8.55822660655752    3.33570718007903
H         5.31305104197271    7.87244687526621    4.94113977178835
C         6.46048948431653    5.36639340270256    4.33225544065272
H         6.83316756502400    6.38770483150183    4.46655791210781
C         5.86574540795613    4.86218238811781    5.64679357973018
H         6.64917704198057    4.71512864603391    6.38849206796544
H         5.35871898633495    3.90892032694716    5.48334515726776
H         5.14452646796356    5.56756358208534    6.05336825838086
C         7.61410203974785    4.47071229214246    3.88950353249260
H         8.28646885354637    4.28362315446557    4.72565515228408
H         8.19075279907312    4.93268086627672    3.09178620902754
H         7.23693778523801    3.51466556743331    3.53004376389987

