98
CSD_code = OSIHOO | q = 0 | S = 0 | Stoichiometry = C43H49N5Zr | MND = 5
Zr        8.88240799172014    6.43498662938179   -2.93961873147020
N         7.57371684029199    5.77384940571440   -1.50873449418357
N         8.60619098552976    8.44507490250979   -2.61864431590853
N         6.92976885511215    6.99535031071780   -4.08607937343400
N        10.87387784690108    6.29153994215112   -2.40257544751139
H        11.31306477419907    7.17552288278292   -2.13638292943740
N         9.36073112145797    5.47097177567847   -4.71322244080028
C         6.53621860500315    6.67483936103641   -1.06887168561496
H         6.81601518060475    7.09248858662931   -0.07863829969418
H         5.58801799661907    6.13919436256430   -0.91167990853512
C         6.22679764194266    7.92415082515994   -1.95590213600483
C         7.41642943572341    8.91935427446317   -1.95285062776141
H         7.06179531293344    9.85152743918610   -2.44561012443332
H         7.61102535311230    9.18780479191186   -0.89670172245078
C         5.04773596130576    8.64034021500786   -1.28012758209719
H         4.16873648197330    8.00115799114090   -1.23599024731129
H         4.79593309743484    9.56179316351747   -1.80052063832366
H         5.32103069268970    8.89907942212494   -0.25944803944902
C         5.92914173341525    7.56208590114082   -3.38989243959467
C         4.70458879631144    7.83770726082973   -4.00199582677876
H         3.89135704286864    8.26629518373841   -3.44183142690968
C         4.52568549377398    7.56205082119570   -5.34539170165120
H         3.58102295403940    7.77238175265347   -5.82424539506388
C         5.58525121045080    7.02718348547856   -6.06539074177714
H         5.49827535718057    6.82077957406656   -7.12013855547004
C         6.76034220442150    6.75691569948537   -5.38959188343283
H         7.61959392500725    6.32600014310684   -5.89882310566380
C         7.35814214817615    4.42026035249310   -1.22958042431270
C         8.33384145778753    3.74196572573757   -0.46451055143116
C         8.14358139966590    2.42326665297305   -0.09674688931365
H         8.90333792904983    1.92790740375593    0.49255326308684
C         6.99386318874240    1.72665913574244   -0.44121020360329
C         6.04719375825939    2.38471143372387   -1.20713693547513
H         5.15476207507483    1.85399702008732   -1.51277079309129
C         6.21035856193346    3.69864626534674   -1.61990707619569
C         9.55727892635106    4.47953306038028    0.00035329193492
H        10.22762024244075    3.80168796079987    0.52475601363746
H         9.26993721682559    5.28084983860292    0.68529752122017
H        10.08878579894422    4.92481235857231   -0.84959736050868
C         6.78101720459810    0.31095933764079    0.00556891123378
H         6.24777141216666    0.29004827125596    0.95730659003656
H         7.73268777485088   -0.19736433048948    0.14241908267801
H         6.18897354028201   -0.23954427852887   -0.72246702987970
C         5.16920496964139    4.27947824118165   -2.53995603779102
H         4.77833981061092    3.49648735034723   -3.18807947694538
H         5.60475327720921    5.05906245610493   -3.16281634355812
H         4.32406186602597    4.69883657331119   -1.98947368289038
C         9.72344488713224    9.27077859070293   -2.39427045339757
C        10.12957966601536   10.18557843986335   -3.38136718739568
C        11.26590955093309   10.95592828635204   -3.18595132830327
H        11.56937399639102   11.64768531693338   -3.96018585710951
C        12.00904718692430   10.87238309121936   -2.01838379108490
C        11.57880520822451   10.00131384941057   -1.02646263032232
H        12.13673627887902    9.93698121907674   -0.10134123568691
C        10.45126375833488    9.21113201128546   -1.18745089972948
C         9.31373634102931   10.36350434858597   -4.63312010742051
H         8.54050948900476    9.59475114677268   -4.69179165578561
H         9.94269129366832   10.30931049729303   -5.52027996708848
H         8.83394310141140   11.34323286887416   -4.62438492430506
C        13.25221830128452   11.69074566296407   -1.83480455944362
H        13.40939668730280   11.92805323819959   -0.78496496824837
H        13.19358407255493   12.61733872069081   -2.40116504870398
H        14.12153505100789   11.13465780502846   -2.18819321720594
C        10.02078087194419    8.28572175811023   -0.07892846212313
H         9.45012914618080    8.83737411813284    0.67164077262614
H        10.89151923286229    7.85992148362244    0.41981670959163
H         9.39783621609743    7.47448837441435   -0.48325379053376
C         9.22748962514858    4.19338241697789   -4.16301220933748
C        10.26371737681592    3.55482629055950   -3.42148923852386
C        10.01829808367290    2.26410870735148   -2.94795128929130
H        10.79371579428382    1.76612062300364   -2.38329240525731
C         8.82253645155801    1.60800762252314   -3.16925409289132
H         8.67817066209032    0.60616868779493   -2.79385338787195
C         7.81036467321759    2.24167035210093   -3.86996152579073
H         6.87658080499902    1.73264078033547   -4.05853689357269
C         8.00930980721184    3.52311898731555   -4.34812947166469
H         7.24151904122519    4.00538368260185   -4.94654886513223
C        11.59628764956121    4.14328687122842   -3.24192189224212
C        11.83719355961692    5.41924156792619   -2.82384916084774
C        12.76076884935371    3.22838816083356   -3.54581614767315
H        12.40680548053294    2.30329911211679   -3.99343247708689
H        13.32879919513416    2.97834979092728   -2.64654386444377
H        13.44730212275252    3.69862915012261   -4.25048248505231
C        13.27056142514764    5.89787806937534   -2.74180569491121
H        13.31852358548002    6.90949142009350   -2.33833857325231
H        13.71856002544645    5.90757595593175   -3.73534383688403
H        13.86813509445443    5.24371969842606   -2.10819215546875
C        10.51172244872742    5.84812146448437   -5.35031962093732
C        10.84492427937021    7.21560390200892   -5.34918049242121
H        10.19765897302262    7.89198109345089   -4.78872395770373
C        11.96161108940420    7.67112848719313   -6.02001687961451
H        12.21363749086432    8.72284493647663   -5.98855023267183
C        12.76917070212714    6.78878655429532   -6.72256810166894
H        13.64640319832578    7.14587292198986   -7.24143006658531
C        12.43540887693790    5.44216823910623   -6.75566245665548
H        13.05449457424624    4.75043224296710   -7.31066315093369
C        11.32438283866450    4.97121457603007   -6.08914986651949
H        11.06654042406215    3.92198987797090   -6.12343894869027

