148
CSD_code = OSIJIK | q = 0 | S = 0 | Stoichiometry = C61H76B3NiO6P | MND = 5
Ni        6.85371943333515    3.96098310948237    4.97515017118351
P         6.13414506436702    1.99312601632796    4.23792563200202
O        11.08367142451169    2.50137508809684    3.70664547642208
O         6.66854503638532   -0.62974462796758    2.57992459250175
O         5.84811730011425    5.76179440536733    4.34161588760730
O         3.52959747995951    5.88999049710758    4.98986928445281
O         2.83183932693421    4.26741534060460    6.54074427395925
O         5.17142875340236    4.46459262160579    6.19293715304329
C         8.83930412882549    4.03437398503522    5.37096107683955
C         8.59821934317315    5.37359466024606    5.60293071902344
H         8.63848456565904    5.74107815735308    6.62100491841572
C         8.76058913589756    6.44139120332681    4.55382980313981
C         8.81540352998011    5.82894340652851    3.19763413949675
H         9.00381544082808    6.51338382039764    2.38547176086809
C         8.65889600828530    4.52303222043085    2.93786300396281
C         8.53534050504179    3.55867376731507    4.04389327493798
C         9.25406856605933    3.08422688238787    6.48045198906153
H         9.25419238255325    2.06907249289926    6.06860988510030
C         8.26815353121633    3.14567627199828    7.64982743020549
H         8.41041598391195    4.06052849885728    8.22076677076920
H         8.40941490427138    2.30229650475206    8.32328151564144
H         7.24116962228023    3.12371387350888    7.26529464822720
C        10.67523649619662    3.39788071248616    6.95176864339826
H        11.37670786947424    3.30067145577905    6.12736486494205
H        10.96561783745515    2.70303984065980    7.73733767733709
H        10.73751218656098    4.40872416255464    7.34799369003369
C        10.12656792521621    7.17620091994830    4.79354798634552
H        10.14164137710796    8.02908916789877    4.10794335371272
C        10.29254082395711    7.71608025318427    6.21289584099143
H        10.52612842829137    6.91655419377910    6.91165249355814
H         9.39869752327481    8.23081566692425    6.55014603470727
H        11.11664136557931    8.42696119255017    6.23379685774111
C        11.30749090989283    6.26956846078222    4.44669148285460
H        12.24071296310342    6.76472746457424    4.70823601630376
H        11.32715386117188    6.03933580649765    3.38495299217807
H        11.24501479454457    5.33165696403394    4.99002459953827
C         8.71509626661397    4.05124932773789    1.49539657145167
H         8.37325148636096    3.01398773189136    1.45544239801982
C         7.82133178231980    4.89002027054058    0.57606013509304
H         6.84652804469408    5.05208415639002    1.02380904934817
H         7.68572319921827    4.37990306965976   -0.37537693330228
H         8.27166611005418    5.85842949983519    0.37154157840010
C        10.15453139205043    4.10266086841809    0.97346820166307
H        10.50622700547506    5.13120298838518    0.93213769875664
H        10.20515610183742    3.68266936223287   -0.02912956903981
H        10.82188291415472    3.54552993083177    1.62059971629526
C         8.75712229416577    2.13360156308504    3.65823787365636
C        10.05204503766075    1.66001880741396    3.39378090284674
C        10.20010194028780    0.39272907835763    2.85508014556070
H        11.17770363582282   -0.00846177695484    2.64123750985293
C         9.08998662139256   -0.38259357062698    2.54676879223605
H         9.25138467309083   -1.34451828541085    2.08700304212354
C         7.81212158881073    0.05973456003347    2.84860492831458
C         7.65368035010728    1.31086443353968    3.45905405312292
C        12.40082253329798    2.04846901743626    3.50958368373899
H        12.61835060057110    1.16627703554908    4.12045047215676
H        13.04326667366982    2.87092452912083    3.82128381873454
H        12.59945760218406    1.81865517916394    2.45740582118877
C         6.76689294199768   -1.87931968848653    1.93989036855351
H         7.24418916118894   -1.79166235279468    0.95904841710746
H         5.74293850833142   -2.22690822612954    1.80959775128964
H         7.31841571886073   -2.60333235126771    2.54888160203330
C         7.58142714818282    7.47445452217914    4.63432297682977
H         7.28318690191661    7.51705886865976    5.68404533546117
C         6.33942402664854    6.97495511020324    3.85672971510715
H         5.56399064118493    7.74828448477881    3.92477457505311
H         6.58850935572734    6.83385502476685    2.79893042126782
C         7.88342539729064    8.88055070067414    4.19298277344531
C         8.19128895447772    9.21140518615612    2.87655651616394
H         8.24534766211775    8.44192255542012    2.12227829059166
C         8.42218801229926   10.52441537517611    2.50697504256614
H         8.66444198788866   10.75679532583524    1.47963668632650
C         8.33724972365007   11.53955037940947    3.44367606770838
H         8.51776045390306   12.56422774428614    3.15399588285222
C         8.00543775783877   11.22966890511598    4.75089984158720
H         7.91831973193744   12.01455295026991    5.48798306007769
C         7.77956071530998    9.91552938496261    5.11786310444295
H         7.49882365075017    9.69115304836051    6.13727319546051
C         5.15627776006311    7.01604446948999    6.57415348244734
C         5.97107174810564    6.84276381247373    7.69174640082891
H         6.43613664666194    5.87843769891733    7.84524941398699
C         6.19671790143575    7.86617405210290    8.59498777911365
H         6.83859194720126    7.70476966263500    9.45165240631984
C         5.60099603235065    9.10147778695990    8.40197839927132
H         5.77936451020457    9.90744689103124    9.10080944034883
C         4.76783105280143    9.29182313738606    7.31258853762521
H         4.28932354694244   10.24991983102605    7.16135194529705
C         4.54775168952398    8.25914058337649    6.41744121197750
H         3.88273060263863    8.40931875643786    5.57856141925293
C         1.09374459994092    5.18207263021857    4.90562529604762
C         0.07705595759971    4.39502593149031    5.44472350216092
H         0.30545083964283    3.77554919122382    6.29979456713858
C        -1.19715230767815    4.40123070230720    4.90636875291699
H        -1.97264407518642    3.78450326073352    5.33980798046605
C        -1.48187356657690    5.19791921103665    3.80962417272976
H        -2.47678167375605    5.20360046503702    3.38633824993969
C        -0.48656053255720    5.98838948525636    3.25883760111327
H        -0.70608804762502    6.61235699341090    2.40338187950427
C         0.78451450052397    5.97838720123946    3.80352150002866
H         1.56565806531696    6.59172331960859    3.37913091145308
C         4.25334529214169    2.82648090661561    7.99105338967929
C         3.34415503142571    1.76919342838159    8.05826860726903
H         2.59384809658625    1.68440734581680    7.28454513347385
C         3.37928195537764    0.84932596713974    9.09089843629020
H         2.66151142270628    0.04085964667300    9.12343384762461
C         4.32946309572590    0.96747484612943   10.09225714836047
H         4.36237227903922    0.24830425346844   10.89851157326952
C         5.22372078594617    2.02342389506091   10.06093793359049
H         5.95361216524628    2.13539298833591   10.85063242654549
C         5.17786849689935    2.94250792595933    9.02664247048783
H         5.85599281197144    3.78189632146891    9.03371526066036
C         4.80008022792172    1.97923985357641    2.95203785590334
H         4.63615997283966    0.96108246611520    2.58624958180550
C         5.25906768948011    2.88784266979085    1.81551857664704
H         6.15009536060816    2.46824907378957    1.34233266122126
H         5.52216215258691    3.85540643072216    2.25856028929052
C         4.16182647385850    3.07923076210869    0.77324350579551
H         4.51421504740173    3.75160902120352   -0.01228845132308
H         3.93138497526601    2.11623907553242    0.30876237533981
C         2.90072859464466    3.64354704581250    1.41993867127481
H         3.11597325301214    4.62402089184129    1.84804412275583
H         2.11530490716946    3.76464715713821    0.67085382539357
C         2.42841839206742    2.71761814666002    2.53475758669172
H         2.17086258263619    1.73932501773646    2.11778285660315
H         1.53703222733441    3.13183816935872    3.00912931817510
C         3.53206305701242    2.56337043436942    3.57598605114615
H         3.17799914655978    1.94991190569341    4.40688270467999
H         3.77277614218462    3.54928391215594    3.97784225369379
C         5.61633654705541    0.67032262678157    5.46581393753470
H         5.05508962847493    1.24199557437790    6.21748656290540
C         6.84757831161412    0.07718014863755    6.15088017330519
H         7.40853229486023   -0.52967083944742    5.43554311545897
H         7.49827074034270    0.87958242562191    6.49509126460539
C         6.43336908620657   -0.79379998461703    7.33314519838630
H         7.32107659886249   -1.21080473186536    7.81470377491163
H         5.90738532049957   -0.18053254464759    8.06702010747219
C         5.51929557760058   -1.91900235980203    6.86126303085966
H         5.20088791114954   -2.52420117650129    7.71237753605107
H         6.06759956588768   -2.56931701777618    6.17449403016281
C         4.30124067000547   -1.33971212088299    6.15077195746643
H         3.72824011801364   -0.73955759822258    6.85892206948177
H         3.65891232899218   -2.14872632195723    5.79444059118283
C         4.71892452498120   -0.46340992851798    4.96952174632697
H         3.82218732088226   -0.07306587821335    4.49006628767374
H         5.25566242473405   -1.07075693807816    4.24386514224113
B         4.89764261110885    5.81189075902739    5.50363787547684
B         2.55913146144759    5.14847699834419    5.49881273575738
B         4.11604598990637    3.91798509443200    6.83797054614014

