81
CSD_code = OSINUB | q = 0 | S = 0 | Stoichiometry = C42H17F15N4NiO2 | MND = 4
Ni        2.54579683674254    8.01136804548357    1.63391786627272
F         7.42173575766645    8.33507577847428    2.95357869883151
F         9.67724628839209    9.24230867926870    4.15234895434380
F         9.52383289165022   11.22206396078418    6.02197702090447
F         7.09908405809802   12.27316548535243    6.68964519572468
F         4.84737640888415   11.34959473755744    5.49720714095316
F         5.57473564649188    5.93463839984743    7.32160232884633
F         7.25404634673311    4.53393986299416    8.87183050805500
F         7.39735857875244    1.81119342864414    8.65571127583458
F         5.84074254004650    0.52879770085540    6.80865637421831
F         4.20772109590234    1.92318740220268    5.20322967713312
F         0.79768436655104    7.44337529353723    5.30033896967917
F         0.96178924528634   10.12069018513840    5.22099348641778
F         0.14672621116879   11.49109694307765    2.99676410879607
F        -0.77508336670520   10.10444937596653    0.83025849458135
F        -0.86371454634778    7.42722544609265    0.86042195984442
N         3.07140935061905    9.80089795375541    1.92142823508973
N         3.20412589526368    7.53960928969230    3.34885350188000
N         2.12574223895261    5.38447724102539    4.08597260732623
N        -2.50856423994506    5.95520710276738    2.54529979017633
H        -2.66563206666213    6.87956913485140    2.91138403847972
O         2.25710857965915    6.19936108579713    1.28221247054655
O         1.95941849550638    8.47424767612742   -0.06510284102526
C         2.67678698127317   10.86991007358875    1.23678192851386
H         1.84582785831039   10.83900365360617    0.55507358312787
C         3.48588979823231   11.98505882634589    1.51897052334323
H         3.36514325060290   12.96614750349814    1.10460049501130
C         4.43485317941433   11.56222438787909    2.41362776050465
H         5.22465935237952   12.14174913775110    2.84936188441675
C         4.16714217238481   10.19116110517618    2.67489019667405
C         4.85452623929502    9.32960302111027    3.52886178054354
C         4.42452379783186    8.03728210180710    3.82551813026089
C         5.03165969853283    7.11903928212261    4.72356853337534
H         5.97069620048357    7.26145597201881    5.21806988742646
C         4.16204476335313    6.05260211464906    4.82018586858507
C         3.04437202631110    6.38289755206136    3.97841250931752
C         3.92932569415885    4.74385969667142    5.35698448656814
C         2.68072072862886    4.36641695636241    4.86528629146575
C         1.70740855391272    3.33747746678900    4.95958729728765
H         1.81792346823341    2.42044595853411    5.50235357170328
C         0.61350293028530    3.73593997204677    4.25510926307301
H        -0.31323205295030    3.20574557415719    4.16633272988590
C         0.82950540422299    5.05960386395991    3.73198947536793
C        -0.11234587453594    5.86603464347250    3.12994239595636
C        -1.31483845895038    5.28540001726847    2.58818833241228
C        -1.53184151667334    4.04050841644955    2.01382430522727
H        -0.79197783991275    3.28193477594162    1.85962123236119
C        -2.87542344392394    3.97861318715443    1.62838631497626
H        -3.36218513713105    3.15414688837336    1.14755246355640
C        -3.45457693212296    5.17410234015723    1.97682869372166
H        -4.46360414178951    5.51421087842708    1.85488145737176
C         6.08155388592484    9.82528998203860    4.19211675644736
C         7.33002276809857    9.29782199411664    3.87378003895217
C         8.49291529065700    9.76017957733664    4.48156005121124
C         8.41642316633189   10.77011711442789    5.43637655557341
C         7.17723858109830   11.30653049895754    5.77485962350225
C         6.02625941732473   10.83225238338941    5.15250810057722
C         4.81360072372749    3.98421805451611    6.20823357117225
C         5.63494924789342    4.60809181444223    7.15851339295501
C         6.49839231406232    3.89296503579375    7.97594305194151
C         6.57283093018097    2.50710797818253    7.87083756557316
C         5.77533273386937    1.85765140011817    6.93306920686258
C         4.92011377257681    2.58874993727739    6.12187702427509
C         0.02673858660361    7.32085634162918    3.06376553081219
C         0.48312396341206    8.07047499152791    4.16059605312530
C         0.53831014937518    9.45907853725727    4.14484103066386
C         0.12077831000922   10.15896662959957    3.01705108150495
C        -0.34755288475379    9.44936520742101    1.91357340136857
C        -0.38019494534529    8.06007257696013    1.93846539153153
C         1.73757407071300    4.14874155432735    0.22591378749235
H         1.96690192481410    3.76336985707492    1.21599971387999
H         2.44633284147153    3.73761394448017   -0.49009681058655
H         0.73701610437989    3.84384187922423   -0.06942062785141
C         1.83421779416755    5.65429240126221    0.22209748826485
C         1.45840155181306    6.33863484118854   -0.93232356066450
H         1.09633843056007    5.78509010070468   -1.78105286478519
C         1.54306994211158    7.72842240689272   -0.99900577110295
C         1.08414888212665    8.42913252486805   -2.25253658944665
H         0.01876987222848    8.63830721692178   -2.16108588890052
H         1.24374822447794    7.80709362198621   -3.12754367688334
H         1.61017103751944    9.37415401940561   -2.36163388241125

