62
CSD_code = OSIPIR | q = 0 | S = 0 | Stoichiometry = C32H25AuN2O2 | MND = 4
Au        6.30942837198280    0.35009294330039    8.69964725053548
C         4.91777759186143   -0.29136416204806   10.02367249663199
N         6.73950233390894    1.56671163310953   10.17961486499513
N         3.63340867287031   -6.04262344174495    0.32570010150309
C         4.98353142577209    0.44036340979534   11.23285494555724
O         5.09462676919604   -4.81235588987485    4.67412795826785
C         3.68253779658858   -3.70648208375900    0.96961856981488
H         3.32052200388941   -3.40141449304059    0.00213717962174
C         2.96256143632103   -5.75663461597639   -0.92249064012130
H         2.21638042769810   -4.97380365466351   -0.76747468300670
H         2.42502175847811   -6.65849098193920   -1.22866588065006
C         6.00664899506469    1.47621267418226   11.29720642407630
C         4.03691661970826   -7.41708318596793    0.52568722607374
H         4.96904693346583   -7.44304160145451    1.09434299446772
H         4.24290185434869   -7.85356279109750   -0.45583838738379
C         3.88709422917275   -5.07587167791358    1.25567207767141
C         8.37322107253880    2.33646290899193    8.69617076254413
C         3.93364923864053   -5.34863545267837   -2.03275947772237
H         3.38850996580048   -5.15069026739401   -2.95201490173019
H         4.65128599242417   -6.14398086772265   -2.21982535099762
H         4.48454609502889   -4.45514789665423   -1.75144415608235
C         7.84220404417255    1.35486983998720    7.82611227199566
C         7.31388872183322    3.25819906602489   12.21208758943167
H         7.54265427334141    3.93433835296349   13.02317467804376
C         3.95180590257366   -2.73382750458938    1.89510449835319
H         3.79227033706620   -1.69468776767966    1.64622294768632
C         5.87216034831424   -0.82636771028426    7.28724418431248
C         5.23694959140788   -2.50663324129228    5.38167736517041
C         4.76782407186187   -2.09918976885757    4.16967736253804
H         4.63909235936168   -1.04590855054358    3.96164373710198
C         4.44516292895219   -3.05131038120779    3.16723264063973
C         5.39997022001729   -3.93164878884796    5.67879279782139
C         9.99078377115442    2.98461906692315    7.04273153225786
H        10.81774048548680    3.60859858419228    6.73562133748488
C         4.36414486595264   -5.39944304247485    2.53136656202887
H         4.52533751767291   -6.41642459903444    2.84396388460704
C         9.43992467580453    3.14097642764500    8.29976837108359
H         9.84087822030371    3.88718171712389    8.97068496130408
C         7.73856735597270    2.44114267179249   10.00475128063514
C         6.28645029492533    2.33974179781969   12.35494817100430
H         5.71404137897988    2.29438998046798   13.26665649446948
C         8.42079347574526    1.22487522244067    6.57373670493455
H         8.03362936930401    0.47884870478286    5.89424839172865
C         4.63890387617399   -4.41181696211799    3.46148671134143
C         4.11357806872281    0.15844208036400   12.28482715488687
H         4.16959331077137    0.72039747713806   13.20620047951734
C         5.57859161608266   -1.60076984406067    6.40813304702607
C         3.97041884968620   -1.29728189427726    9.92659247992059
H         3.91318631008731   -1.87577199910344    9.01597049698618
C         3.10603563005226   -1.57593606710447   10.97537936423051
H         2.37595441505891   -2.36608775886669   10.87430281339517
C         9.48198323133135    2.02721877545804    6.18027308423521
H         9.91434136744512    1.90439879201645    5.19738540035215
C         2.96514520716491   -8.24842817364900    1.23273841369888
H         2.04958976823703   -8.26729589808916    0.64594633332839
H         2.73531460889771   -7.82753232957639    2.20759738171671
H         3.31280808043594   -9.26954856138949    1.36503926979700
C         3.17595084868383   -0.84705101981764   12.15178531303842
H         2.50147494232635   -1.06533853902506   12.96726450364808
C         8.05099154352520    3.31988127766505   11.04007864253286
H         8.84972527113506    4.03490290886847   10.93185614973005
O         5.77621925927891   -4.39238284714547    6.72825582194325

