153
CSD_code = OSISUF | q = 0 | S = 0 | Stoichiometry = C84H54N10RuS4 | MND = 6
Ru       -0.00007647712697    0.00008077197281   -0.00002676203875
N        -0.00801604640255   -0.56003600491819   -1.90242260623011
C         0.75552249275709    0.00162340110438   -2.87728958234627
N         1.50828406965283    1.07795493848910   -2.77751155039272
C         1.68336942321011    1.78649261249625   -1.67989933583762
C         2.43068930279833    3.02296078754067   -1.63023923221430
C         3.09880077078492    3.87951393735828   -2.47127132850597
C         3.19792529105895    3.92997334748330   -3.91236072036304
C         2.20721980113365    3.35820628239446   -4.71405930227745
H         1.40123488751297    2.81474373935930   -4.25005616490970
C         2.26088007065698    3.48704825032781   -6.08726535434264
H         1.48405685135660    3.04687970126751   -6.69491574219093
C         3.30620945528088    4.16809224139130   -6.68827028181541
H         3.34570822414889    4.26182549535708   -7.76326679078533
C         4.30121566787360    4.72831719658146   -5.90299867398763
H         5.12135681803912    5.25834887516776   -6.36530078412418
C         4.24510007124983    4.61922925639039   -4.52843599769387
H         5.01574013153764    5.06644936925237   -3.91612640605807
S         3.80386387524979    5.16872760712134   -1.51933566543703
C         3.12850469736830    4.58603997931598   -0.01207779405371
C         3.26695066005426    5.39105667530248    1.18019996696180
C         4.32688340301691    6.29150924711477    1.30992696390263
H         5.07733127120551    6.34086001932836    0.53310525039256
C         4.42174857336280    7.10898530862230    2.41775851477159
H         5.25141516768846    7.79521223546133    2.50786493028852
C         3.45321762634053    7.05659119935993    3.40752918395937
H         3.52311097808912    7.70276806044449    4.26988287629260
C         2.39537371988671    6.17111756111163    3.28545663018383
H         1.63901580960586    6.12556407611636    4.05501894697085
C         2.30254111251214    5.33739782576586    2.18922421111114
H         1.48702607177956    4.63878963415733    2.10271245563383
C         2.44554328331683    3.41900569107150   -0.25330847513504
C         1.70140019677763    2.40581081790043    0.46226761648469
N         1.54557982169460    2.39058984344315    1.76843021997923
C         0.79292586391519    1.53800587068128    2.42788013263692
C         0.56784160690816    1.59853827807055    3.85661359920411
C         1.02867110291528    2.26662380784357    4.96559622686462
C         2.17140167557168    3.12919684226405    5.15522828655485
C         3.22015531516569    3.13691919564404    4.23161150948603
H         3.14369088299291    2.53621660368473    3.34084965780234
C         4.33921124074508    3.91357056345440    4.45453596652065
H         5.14287021676716    3.90891310743035    3.73296273096344
C         4.43323791646815    4.70229496822169    5.58910382038227
H         5.30966914832486    5.31051154166760    5.75662271522060
C         3.39567370822167    4.70801100219566    6.50789692893566
H         3.46058314391092    5.32292500468546    7.39392470071241
C         2.27820288401928    3.92611445981330    6.29813347584373
H         1.47291189566607    3.92737994681494    7.01965274325079
S         0.05459480234008    1.80489798813896    6.34655443980137
C        -0.94309922890302    0.69728724887268    5.42709866056652
C        -2.07707442860073    0.06427630823418    6.05915546924742
C        -2.16126664175270   -0.01418245815638    7.45188930285275
H        -1.34540145567807    0.36270983606331    8.05288218249521
C        -3.26945971692648   -0.56809034067248    8.05939416839102
H        -3.31635011843227   -0.62615864795094    9.13723249769915
C        -4.32080925583894   -1.04436108938877    7.29217113301310
H        -5.18995559675295   -1.47283727936291    7.76862313762839
C        -4.24971482091527   -0.96887721768161    5.91115563974281
H        -5.06388777136298   -1.34310562314585    5.30808808063745
C        -3.13980228211433   -0.42644123848283    5.29572622140103
H        -3.08133555203924   -0.38516283857190    4.22125453689649
C        -0.50626574403198    0.68940812259240    4.12375950306571
N        -1.59710604588752    1.22522307020879   -0.38593495391751
C        -1.64868446855671    1.99839344532468   -1.47880372827658
H        -0.78994684664223    1.98657751454839   -2.13720639832023
C        -2.72986074819468    2.79378216035794   -1.79690137596768
H        -2.70284166366807    3.38866126241769   -2.69697372359395
C        -3.84491543241376    2.82293835378621   -0.96327556607685
C        -3.78422043625216    2.02440019717685    0.17405472630018
H        -4.60868066738300    1.99534009465822    0.86988898341330
C        -2.66452725170185    1.25548132635696    0.42125036988418
H        -2.63295137130222    0.63794409613994    1.30896888929021
C        -5.02677290219638    3.67960989163947   -1.27006753259919
H        -4.80774178272854    4.71544597812513   -1.00966847842677
H        -5.89693847956433    3.36115360016698   -0.70226820240369
H        -5.25914025474833    3.64671605612549   -2.33230138287407
N         1.24783207416165    1.48453660693529   -0.42814959390334
N         0.00816025661756    0.55991285082468    1.90245030063575
C        -0.75544180171708   -0.00168375557161    2.87730235672013
N        -1.50823927334304   -1.07798784967942    2.77751300240509
C        -1.68327641924888   -1.78655325532905    1.67991076129958
C        -2.43067147891606   -3.02297396724229    1.63024097700387
C        -3.09887554616822   -3.87946627094234    2.47125947391477
C        -3.19808350724341   -3.92986736565384    3.91234455001118
C        -2.20740047035128   -3.35810822690575    4.71407636109956
H        -1.40137258944050   -2.81468615782998    4.25009760492283
C        -2.26114205125435   -3.48690112810034    6.08728401597202
H        -1.48434247952367   -3.04673142049403    6.69496316920707
C        -3.30652814004741   -4.16788862582244    6.68825372907339
H        -3.34609353670940   -4.26157620450994    7.76325127344228
C        -4.30150663145545   -4.72811184178041    5.90294649494119
H        -5.12168790700581   -5.25810524401343    6.36522029795030
C        -4.24531125334345   -4.61907307969368    4.52838396756974
H        -5.01592126924050   -5.06630423361814    3.91604510633112
S        -3.80384295328084   -5.16874178245918    1.51933535621109
C        -3.12847233857931   -4.58606280107332    0.01207972959236
C        -3.26684328362864   -5.39111427473846   -1.18018129197320
C        -4.32673366932439   -6.29161301121263   -1.30992235564852
H        -5.07720654987159   -6.34097429233647   -0.53312582036755
C        -4.42151393810815   -7.10913549008413   -2.41772585656907
H        -5.25114782738549   -7.79539970771443   -2.50784281895070
C        -3.45293849265605   -7.05674229128175   -3.40745269857688
H        -3.52277056299453   -7.70294898660258   -4.26978842379250
C        -2.39513316452480   -6.17122548732498   -3.28536410679116
H        -1.63874900782762   -6.12566200937390   -4.05489961810234
C        -2.30238302438758   -5.33746195346963   -2.18915832208735
H        -1.48690066059628   -4.63881590823496   -2.10263628105905
C        -2.44547799883185   -3.41905197475464    0.25331946587395
C        -1.70125755954344   -2.40591099113747   -0.46224617901125
N        -1.54545723087425   -2.39068642938973   -1.76841133447008
C        -0.79280002823327   -1.53810899393588   -2.42785863845451
C        -0.56777125968592   -1.59859923307773   -3.85660255787956
C        -1.02861433585110   -2.26667980548467   -4.96558385025697
C        -2.17129607018466   -3.12932118551516   -5.15520501102874
C        -3.22006950785901   -3.13707293752480   -4.23161615898991
H        -3.14366089026392   -2.53635301211140   -3.34086851809255
C        -4.33907488730563   -3.91379951071422   -4.45453983338482
H        -5.14273443508310   -3.90917693769813   -3.73297342690017
C        -4.43301628726877   -4.70258658513359   -5.58906896160630
H        -5.30941290173177   -5.31084698115643   -5.75660262714626
C        -3.39541716167854   -4.70829562974685   -6.50782288594833
H        -3.46029135226186   -5.32321133583726   -7.39385263450349
C        -2.27800951487312   -3.92631085064550   -6.29807132025859
H        -1.47270409205749   -3.92754379605094   -7.01957814859253
S        -0.05453768059385   -1.80495827712376   -6.34654412811446
C         0.94307192409252   -0.69724660059389   -5.42711657155782
C         2.07699323041492   -0.06415668081056   -6.05918747746404
C         2.16114423341901    0.01434428351074   -7.45192002503115
H         1.34528518142635   -0.36257884982487   -8.05290146731046
C         3.26929178917292    0.56832860067556   -8.05943732313954
H         3.31614877570762    0.62643379158033   -9.13727478619832
C         4.32063650419928    1.04463208273068   -7.29222788423339
H         5.18974404003006    1.47317500971040   -7.76869031093431
C         4.24958638796839    0.96909805999214   -5.91121283747619
H         5.06375511095400    1.34335329509276   -5.30815649479500
C         3.13971797988375    0.42658627478626   -5.29576985114402
H         3.08128173640786    0.38526810844050   -4.22129661474410
C         0.50629972192039   -0.68942961098821   -4.12375953388342
N         1.59700155938447   -1.22511672382335    0.38593162535618
C         1.64859922304024   -1.99833168834078    1.47878743790547
H         0.78985765750970   -1.98653763363226    2.13718649687478
C         2.72977537083010   -2.79374947040525    1.79686587198885
H         2.70276055354622   -3.38864089058076    2.69693255709040
C         3.84483445205845   -2.82291330113179    0.96324362412016
C         3.78412986727434   -2.02435973300487   -0.17407592278880
H         4.60859564092689   -1.99529818584505   -0.86990698533861
C         2.66443843394594   -1.25541155009370   -0.42125759657183
H         2.63286765464647   -0.63787878478097   -1.30898056897904
C         5.02670075694795   -3.67959620641704    1.27003177859654
H         4.80768141013048   -4.71543426028928    1.00963159010592
H         5.89687577647983   -3.36115072136078    0.70224067412272
H         5.25908307625934   -3.64672097653502    2.33226333341691
N        -1.24763486980890   -1.48466699633875    0.42817435985353

