108
CSD_code = OSOCIK | q = 0 | S = 0 | Stoichiometry = C47H55Br2N3Ni | MND = 5
Ni        2.14398669928193    2.15770343574375    2.45145571859007
Br       -0.18546488367761    1.45723233542392    3.08870393018402
Br        2.57697751267976    3.98954219999508    3.75944947812708
N         2.99587375420850    0.86277224230235    3.59507724603855
N         2.36392599926821    0.82987458137097    1.21888443031474
N         1.56084430174892    3.13086433016806    0.89343499042089
C         3.66315102828346   -1.49715622908695    3.75073222456350
C         4.73391952837594   -2.18706553986961    3.18275265409288
H         5.16121910924503   -1.84593554224286    2.24950703287476
C         5.27274963939323   -3.28734647327800    3.82256135411430
H         6.11083942677270   -3.80576668841239    3.38077465134087
C         4.74055357807888   -3.72055679406814    5.02570704617604
H         5.16318383567155   -4.57969001706492    5.52429472689389
C         3.66377715837767   -3.05172172025215    5.58328118501806
H         3.23860606504374   -3.39273328836328    6.51488203229560
C         3.12602953806111   -1.94407512487535    4.95480282446785
H         2.27947094999977   -1.43744254542816    5.38950095333406
C         3.13575465168464   -0.31379827171027    3.05541256474686
C         2.73373101393571   -0.38059127516173    1.66190239386702
C         2.61064187419401   -1.49416397177569    0.83707383281122
H         2.88658263605577   -2.47195038596528    1.19861674727784
C         2.09980676598141   -1.31686565638642   -0.44183335261052
H         1.99221961776036   -2.16681278927452   -1.09805328860013
C         1.69404589480460   -0.05996381698209   -0.87091034310064
H         1.25316150803976    0.08327928634624   -1.84454949534596
C         1.84171209008863    1.01641076296792   -0.00224112605095
C         1.41287083013302    2.39352300193032   -0.16923709395296
C         0.87105980150679    2.87060844598613   -1.45002608832816
C         1.61329635427132    2.67001674386631   -2.61333936622626
H         2.57425154122560    2.17622479917264   -2.56179261607868
C         1.14081598202733    3.12713076751708   -3.82922579789940
H         1.72993640567698    2.97857117954780   -4.72208341834725
C        -0.08175836401407    3.77402369912566   -3.90040730684634
H        -0.44895268070860    4.13042935288202   -4.85091411311743
C        -0.83212832395875    3.95764812228223   -2.75101276287920
H        -1.79060746513393    4.45108031695992   -2.80356630023279
C        -0.36166119483961    3.51281193947866   -1.52977478895087
H        -0.95832566154726    3.64756595091349   -0.64196208529209
C         3.30416667525954    1.05808539472671    4.95937010127396
C         4.58976312595957    1.30093951662175    5.45212551574613
C         4.69026506945767    1.38366255197294    6.83914522081779
H         5.66221771709510    1.53347622176991    7.28266957418482
C         3.60749123919638    1.30242698071804    7.69109965825236
H         3.78375927898149    1.38689365713030    8.75072550113351
C         2.32228427845278    1.14779961496318    7.18932826552258
C         2.20672605682570    1.01258911821527    5.81823932060023
H         1.23215239482596    0.88253001358420    5.37416703200325
C         5.85830635708855    1.55067632277648    4.64263321613803
C         6.90319188285623    0.48415466011852    5.00489488973276
H         7.16596705443759    0.52332779299479    6.05794849703464
H         6.51960518379251   -0.51260445871959    4.78814942763694
H         7.80972753006433    0.63967318613491    4.42326026651100
C         5.68724350989558    1.53613540574879    3.12147319245987
H         5.48960947052141    0.53520086143226    2.74452242596194
H         4.88992572555551    2.21137248520528    2.81076809607097
H         6.60817658245044    1.88675025679173    2.65767164104059
C         6.36947708604694    2.95380248798983    5.01146882896674
H         6.60664598889341    3.03367386934748    6.06745390369175
H         7.26859810860099    3.18572741161351    4.44429032441392
H         5.60678528441349    3.69383136068710    4.77859036777570
C         1.06632068609836    1.12422328156405    8.04064086555098
C         0.32954399625046   -0.20557904430459    7.82400637836499
H        -0.01041330370723   -0.30621965601428    6.79709603675222
H         0.98182534620475   -1.04502282427770    8.06114580466966
H        -0.54377434831082   -0.25579641851301    8.47038364429094
C         0.16827593358931    2.29170417257473    7.60977173968292
H        -0.13999125083366    2.19311320683514    6.57344495647518
H        -0.72585030689131    2.32447771691572    8.22831722135893
H         0.70099843336292    3.23410888294672    7.71409622134926
C         1.37692641924597    1.26895187496305    9.53218184284464
H         2.00170870043448    0.45065263133120    9.88467492197011
H         1.87672158292297    2.21310917946985    9.73450619564581
H         0.44838719275942    1.25185030581932   10.09903832496431
C         1.15542714550091    4.48328921479907    0.87939957950423
C         1.93011108118039    5.53124301359875    0.37292926902446
C         1.31366256424073    6.78059375275201    0.37115616257444
H         1.84542495635748    7.62288626739181   -0.04297735284219
C         0.05648912275372    7.01379633794587    0.89046822243949
H        -0.33349934125766    8.01750779110442    0.85263761665626
C        -0.66958740860091    5.98537278150487    1.47605745952013
C        -0.09834367548487    4.72688797982953    1.43860192060452
H        -0.62198842050085    3.88838648074587    1.87069270344854
C         3.37967873220398    5.46600187452469   -0.09810663842676
C         4.04990360497932    4.09336705423351    0.00480672610579
H         3.94675445194192    3.68155994268183    1.00900985210320
H         3.65168593717459    3.39044324319767   -0.72357381214411
H         5.11532650936698    4.20349835211237   -0.19249271419147
C         4.19383554847555    6.41667483341335    0.79624611944242
H         4.10258405329245    6.10846140797364    1.83558933299725
H         5.24410056144245    6.38966408347243    0.51305053923413
H         3.84912649218385    7.44259208561050    0.71625841075703
C         3.45247001015504    5.91249601530956   -1.56631810800303
H         2.83341968151838    5.26847018708878   -2.19037779162738
H         3.10860420602020    6.93507852023621   -1.69075295093153
H         4.47939479442740    5.85455303710953   -1.92157419357813
C        -2.02010888551156    6.16312865303526    2.14469872879740
C        -3.05609115903192    5.27138690469913    1.44528610002240
H        -3.10908182439653    5.51013534813535    0.38395767049435
H        -2.80973218959118    4.21903597006887    1.55490008023522
H        -4.03900100116332    5.43089558111909    1.88288583695846
C        -1.88794085600301    5.74986725958021    3.61670961072959
H        -1.61873821452779    4.70244501676041    3.71158036702189
H        -1.11675556005518    6.34076018174238    4.10538893917678
H        -2.83088120684938    5.90659986753106    4.13575903023561
C        -2.50797412766074    7.61247181382145    2.08465020768434
H        -2.63397434631619    7.94256504940273    1.05538009723539
H        -3.47149847949910    7.69151027459849    2.58382626533910
H        -1.81206395649377    8.27719843779912    2.59066861893286

