108
CSD_code = OSOCAC | q = 0 | S = 0 | Stoichiometry = C47H55Br2FeN3 | MND = 5
Fe        7.07780653716749    6.80595942975922    2.48181959940880
Br        4.95406308477653    7.45762607968679    3.04298251447486
Br        7.63062811497175    4.98958518906848    3.71770526012012
N         6.49526226627973    5.82094058099195    0.89078445063544
N         7.31223228703514    8.09278770068619    1.27481817200642
N         7.94545153101203    8.13270289120089    3.63738968277038
C         4.88826188726084    4.17496398564425    1.40636453223029
H         4.32849993266766    5.00475751617924    1.80845820383170
C         4.35776401958482    2.89854739878300    1.44804405885328
C         5.13049833127327    1.88885733368864    0.89016390794936
H         4.77709929447294    0.87135374491790    0.85943501284759
C         6.38611806167533    2.16054463798257    0.38591241497183
H         6.95159872610169    1.33115893315491   -0.00960966446323
C         6.95604304029694    3.43219525488571    0.37554875177689
C         6.13914185309344    4.45881870666806    0.86048423302637
C         2.99782258294513    2.68073801895913    2.08575745838300
C         1.94825639966724    3.51043990690653    1.33275722837702
H         0.96082811639017    3.33139832969136    1.75250796879274
H         1.93052925567194    3.23363555461813    0.27975864303824
H         2.15724279361906    4.57385166606861    1.40891040359022
C         3.06575948339628    3.13513233086183    3.55017016248942
H         3.84196763284112    2.58574799585744    4.07832176015799
H         2.11341964206730    2.95295993449262    4.04337259811990
H         3.28967381317701    4.19502447102500    3.62661525502542
C         2.57052224133667    1.21148426545226    2.05136647165189
H         3.27977153587282    0.58804179381335    2.59053121746559
H         2.48421906235636    0.85161067671730    1.02826382961681
H         1.59840260176632    1.10491173024960    2.52844676887702
C         8.40464501068304    3.53994409602342   -0.09416147503382
C         9.25294478451049    2.61064420451758    0.79160976566711
H         8.93917598891304    1.57491646551743    0.71069023295711
H         9.16415224816471    2.91060099031685    1.83342184129073
H        10.29967789729680    2.66909049063667    0.50001040078624
C         8.48792845297402    3.09499314812903   -1.56261576536827
H         8.16657962043795    2.06488115199061   -1.68536640346550
H         9.51310605811594    3.17567848862696   -1.91852517340875
H         7.85427654700475    3.72439119998887   -2.18581456381752
C         9.03969006135667    4.93069826854568    0.00319236384785
H         8.61745952765937    5.62026772289602   -0.72107538840611
H        10.10577763947696    4.84640027234318   -0.20277608037156
H         8.92964558065987    5.35175908373370    1.00251436591854
C         4.75376328224895    5.39790110125667   -1.62878463060506
H         4.12703970291214    5.25268295231572   -0.76360774702648
C         4.33951559773335    4.93791199717223   -2.86456155983662
H         3.39465477221775    4.42312178900940   -2.95152035298250
C         5.12834662710580    5.13480583211830   -3.98550314515064
H         4.80525218544140    4.76857273562192   -4.94832922468990
C         6.33372334819694    5.80643443926145   -3.86785648388210
H         6.95409071183620    5.96419808166130   -4.73785958501022
C         6.75108351162903    6.27443604551088   -2.63570691049963
H         7.70053253420355    6.78454379867586   -2.55089223620757
C         5.96848812064435    6.06713148235818   -1.50046015157170
C         6.42281948033705    6.55532904288207   -0.18823575211718
C         6.87255831460149    7.90844024947754    0.00409450682970
C         6.85538267219793    8.96052537528162   -0.90599281437419
H         6.46358214714081    8.80476255050171   -1.89800785630462
C         7.31037125625607   10.20722882304293   -0.50265452382012
H         7.28896536314174   11.03806774673808   -1.19001974618386
C         7.76883979595745   10.38991997179249    0.79361547754885
H         8.09576625639985   11.35779526194034    1.13749688595644
C         7.76560013995189    9.30931674100687    1.66989574482359
C         8.15142051288512    9.28505972656426    3.05589033688647
C         9.83870334796386   11.10618028658315    3.11884307206993
H        10.23778358175005   10.74512632468065    2.18113968402064
C        10.42429571641379   12.19537900903570    3.73687977888838
H        11.26858167269758   12.68348766593249    3.27254533015550
C         9.93399860295003   12.65540067547019    4.94764783252920
H        10.39426245869009   13.50477682673543    5.42953597985079
C         8.85088305959235   12.02316103931312    5.53473806351009
H         8.45816898127011   12.38269608036835    6.47386554848685
C         8.26494394941870   10.92965266299417    4.92528949749254
H         7.41381060341137   10.45161667248357    5.38298110729052
C         8.75732165190244   10.45537969932159    3.71185094857477
C         7.21571768293207    7.97292622280392    5.87106212020953
H         6.23753469469390    8.13164949317170    5.44524584348122
C         7.35651303323405    7.81941935450979    7.23805422701184
C         8.65002608763616    7.64169647916379    7.71047967445964
H         8.84745813429650    7.53975275250817    8.76489361227186
C         9.71421466122190    7.56405225295631    6.83517539160014
H        10.69297601406311    7.39906817681452    7.25816662930250
C         9.58705095824576    7.67392966950548    5.45163614727799
C         8.29361778135964    7.93406385145632    4.98773015512439
C         6.12074769734502    7.85292079714934    8.11861948560458
C         5.41681881318477    9.20690301102197    7.94971300021017
H         4.55289325819638    9.26225976233030    8.60834312642884
H         5.07010356688524    9.34663966774319    6.92963193892816
H         6.09488569163823   10.02080937565534    8.20167323526518
C         5.17970214351024    6.72096998645550    7.68416269792966
H         4.30149537207202    6.69708550763590    8.32571236053684
H         5.68823786468173    5.76192101231014    7.75445703607716
H         4.84677371425091    6.85332408303883    6.65889492750403
C         6.45935107823000    7.66382926476514    9.59918636579332
H         5.54362252171432    7.68479255537207   10.18646859097727
H         7.10763068925804    8.46033251053186    9.95843143674588
H         6.94467304026390    6.70534850520695    9.76715620360486
C        10.84372906843159    7.43786420878788    4.61786679812380
C        11.38043126645371    6.03854425976127    4.96626398194088
H        10.62606989862720    5.28730054932036    4.74339789877155
H        11.64139928403461    5.95384112154966    6.01625984552856
H        12.27111129730123    5.82295688431686    4.37949728907978
C        11.88636918867014    8.50946024738056    4.97264744981061
H        11.49295819693828    9.50389923691389    4.76692114825576
H        12.78662347363397    8.36379724344766    4.37892429959841
H        12.16174569859643    8.46517005336505    6.02225929870480
C        10.65343841112111    7.46471565571074    3.09809683557392
H         9.85528125661916    6.79298247206577    2.78326622977923
H        11.57340235766218    7.12882534097472    2.62177589628452
H        10.44000259789515    8.46506410577604    2.73472673103361

