75
CSD_code = OSODIL | q = 1 | S = 0 | Stoichiometry = C27H41Br2FeN4(1+) | MND = 5
Fe        9.30670501227430    5.39652737545382    7.03457136024033
Br       10.30339967606982    7.45191723121171    7.24111288432175
Br        7.69194001549343    5.96019078571600    5.45011854346336
N         8.07336148842142    5.50666430900780    8.54333304773103
N         8.75147349210391    3.70538406178714    7.03918707540365
N        10.53514290120775    4.67179196284946    5.60492876240078
N        11.58630606897338    7.37757822156456    3.21308719992075
C         6.39350900063308    4.24295922932823    9.84573708791114
C         7.38765680143543    4.42399741194541    8.74978497785091
C         7.73176382809053    3.34547807439366    7.85149390615133
C         7.19150166688081    2.06661186651753    7.80201211207910
C         7.72436808078541    1.15114959537925    6.90349973547164
C         8.76289656972573    1.52772835050425    6.06859327218016
C         9.25619149584810    2.83121934802057    6.14217642595219
C        10.27783435565800    3.42694233325993    5.31493784040816
C        10.90090177037933    2.58720896253466    4.24599060926557
C        11.50537282221511    5.45425218898431    4.86816358815797
C        10.74685612352070    6.36022228216737    3.88797167044824
C        12.20963853582185    8.34722181530077    4.17137979023041
C        13.70790570521347    8.13065876885261    4.28354977328237
C        10.79197560186841    8.07008480364878    2.16019547378150
C        11.68026194541934    8.81396196109049    1.17825210847881
C         8.07648271509992    6.56834016770819    9.47031204989589
C         9.16747339370633    6.61855523623773   10.35374124214214
C         9.20412262167722    7.63543083642829   11.29243234499946
C         8.21057301006811    8.59852359847475   11.32997760415708
C         7.17039038317205    8.56051014555309   10.42367911814801
C         7.07810337941780    7.54554521137603    9.47993015095193
C        10.25651595899057    5.56711336044937   10.28671219807101
C        11.65007188769866    6.15272136967900   10.51050981659215
C         9.97343506498357    4.45283719870652   11.29604529444919
C         5.96298356019784    7.53833782062325    8.46394636441322
C         6.13899087791060    8.72179249984433    7.50894228691939
C         4.58799909010835    7.58142912573029    9.13184903347012
H         6.46657355650806    5.05247251576625   10.56859945616342
H         6.54372626031822    3.29012962559160   10.34960977514074
H         5.38875420337420    4.24428619599333    9.42135191288287
H        12.36050753497189    6.89712241544719    2.73905441620174
H         6.36689223126707    1.79918060291195    8.44125238174122
H         7.32075705956321    0.15323797401883    6.84743217137208
H         9.17381127166694    0.82881614999900    5.35982928189642
H        11.40572339033404    1.73467422817035    4.69867086914995
H        10.11571824587388    2.20452833041317    3.59569611976712
H        11.61635776134356    3.12419045268860    3.63291114418151
H        12.23228198951738    4.82941047075127    4.33870094793620
H        12.03669416918385    6.06019490751645    5.60399295199135
H        10.26761391562988    5.73315682829652    3.13297697408523
H         9.95812976037417    6.88542689044487    4.43041501264916
H        11.72770153598696    8.24524428269552    5.14620225256743
H        12.01455793272832    9.35843449414138    3.81847128819418
H        14.20632893120570    8.28926411835457    3.32904523347038
H        14.11378866873633    8.84427948258660    4.99420476094369
H        13.94641163339659    7.13440204288565    4.64602132956397
H        10.20761683687494    7.32240504252213    1.62104764483639
H        10.09543182337180    8.74516907937460    2.65946815406526
H        11.05641358743893    9.27978207683084    0.42109371624832
H        12.36220057795512    8.13239002561666    0.67359667788391
H        12.25928502715745    9.59920178962218    1.65571906358356
H        10.01896941105607    7.68649269644397   11.99584831448294
H         8.26022288132944    9.38990305910725   12.06159957210896
H         6.41600030467627    9.33035391551008   10.44620806602214
H        10.24921646791099    5.11439230282948    9.26873959227060
H        11.80883903934498    7.02371708747639    9.87885110308973
H        11.78613638445936    6.44783930015228   11.54690594562864
H        12.40708922991795    5.40737762748860   10.27413730316287
H         9.93061482627959    4.86517697214910   12.30146798187525
H        10.76122029044831    3.70306558689346   11.26419425793506
H         9.02369804069220    3.96524995402683   11.08583841364518
H         6.02379145286817    6.62106542558822    7.87094694046273
H         7.12236340861164    8.69436198315965    7.04634290612335
H         6.03459435782321    9.66541056323904    8.03790567222837
H         5.39146481944558    8.67565576604562    6.72154286621110
H         3.81184121346565    7.46855643908464    8.37891763043069
H         4.42975452772024    8.52869710369477    9.63992126580206
H         4.48080053813861    6.78089668417853    9.86151388264171

