77
CSD_code = OSODAD | q = 1 | S = 0 | Stoichiometry = C29H41FeN4O2(1+) | MND = 5
Fe        4.33294497920561    1.41092510873122    6.95527033610941
O         5.23942519058689   -0.82674063488903    8.60000733439699
O         3.45222021784139   -0.50045098234652    4.98366013204911
N         5.98838632261746    2.38732847835447    6.26897788635399
N         4.47247979467186    2.78459439899069    8.16055200281129
N         2.38495276819300    1.63968211404781    7.56098737654169
N         1.32002305124383   -1.53949528919738    6.38615736589685
C         7.79567730208739    3.96075254950564    6.92862226559564
H         8.27043299686370    3.65699983702084    5.99899248499130
H         8.45627003779602    3.71681395159544    7.75997597467765
H         7.65603065188494    5.04084200564334    6.91664055951449
C         6.48026588911790    3.27079886722522    7.09679313144910
C         5.59841711230165    3.56887644063452    8.19216120967287
C         5.76021677022503    4.55956255951770    9.14528866201375
H         6.66154571079095    5.15033644997417    9.16411410315255
C         4.73982431096644    4.80099725880302   10.06079207561039
H         4.85430701843618    5.56783924483498   10.80975577466730
C         3.56274844259528    4.08414996844510    9.97009158127394
H         2.74262572819334    4.31161848148688   10.63186165966137
C         3.42497434543807    3.09119426597007    8.99853460012570
C         2.25736528905282    2.34381101292217    8.68038084656980
C         1.02461050900181    2.36577814873975    9.53246741103938
H         0.65383151884000    1.35803381661726    9.71384337694000
H         0.23180393872752    2.94543709091052    9.05652965400638
H         1.23927184315515    2.82049821206744   10.49331199702419
C         1.23939576548805    0.89457619871545    7.06664771409826
H         1.28577561340049    0.94207018584901    5.97579405192932
H         0.30676043531435    1.37355904986998    7.38001819380263
C         1.25348346666634   -0.58457233215211    7.51933886130274
H         2.14037330744042   -0.73352543981429    8.13979977465054
H         0.36500159345875   -0.82895314517600    8.10650484435050
C         1.66062629112431   -2.91440901908015    6.84425476022415
H         1.37043863656767   -3.60974762506261    6.05581025983568
H         1.06660201062976   -3.13689691955775    7.73383040686562
C         3.14286406885469   -3.08482591257130    7.12528591020548
H         3.34020999325288   -4.12439382369303    7.37099946402949
H         3.48045567222728   -2.47930886941448    7.96063402275459
H         3.73426809540454   -2.82946378245292    6.24943537459841
C         0.07186151375586   -1.53356189573538    5.57686954308033
H        -0.33274738493667   -0.52113116930147    5.57303211864345
H        -0.65540643301026   -2.18935955086249    6.06132106903590
C         0.33387198952196   -1.96966165528617    4.14484874272294
H        -0.58440662439458   -1.88890198522185    3.57047868486901
H         0.67287883128065   -3.00001698906469    4.08283819474632
H         1.08063697872930   -1.33046175623586    3.67961644723895
C         6.68324952765288    2.03564172897719    5.08927565330663
C         7.72280067621633    1.09710028084370    5.11885812062994
C         8.36947199219661    0.78798199833780    3.93042026245090
H         9.17194463861359    0.06718137012297    3.93416161895720
C         8.00862983635180    1.39530800770122    2.74313887867854
H         8.53490615451186    1.15585565956881    1.83191398465277
C         6.96493585993949    2.30106972248635    2.72233394095098
H         6.68158564736523    2.76245404852928    1.78936438015039
C         6.28017310068144    2.62576977505775    3.88363036093096
C         8.09944173491267    0.38142705513887    6.39502146085766
H         7.51346445380531    0.80058208811152    7.22104268367687
C         7.73154984821572   -1.09965224493059    6.26909589397609
H         6.67953666402538   -1.19950919440297    6.00497238777665
H         7.90387208904101   -1.61254702446324    7.21223716693108
H         8.32804936128395   -1.58230641604308    5.49958714249415
C         9.58338229239915    0.54426869880699    6.72679732057949
H         9.85701245863228    1.59582081124217    6.77173280457001
H        10.20589641935998    0.06228083365276    5.97808828769576
H         9.80008471646079    0.08968744349155    7.69064615386735
C         5.12725381242318    3.60238789896959    3.84777151145468
H         4.65549074955190    3.61741129252611    4.83943311762209
C         4.06460885566484    3.15275290314348    2.84357064123335
H         3.75170121830331    2.13389031295187    3.06301968169286
H         4.44303281292064    3.18559588185234    1.82584134981052
H         3.19595049490068    3.80468628530317    2.90349399990161
C         5.62505321964623    5.01227072275564    3.52487692178334
H         6.36205146465958    5.33501841176760    4.25720264970422
H         4.79643570807908    5.71668338919634    3.53536654818329
H         6.08707072704988    5.04083144966868    2.54127651384333
C         4.94842157505363    0.07100692189918    7.93899087185660
C         3.94057011449703    0.32662939467342    5.66486916051396
H         2.10307621499554   -1.22417642629071    5.76204028815777

