43
CSD_code = OSOHUB | q = 1 | S = 0 | Stoichiometry = C17H18ClN6Ru(1+) | MND = 9
Ru       15.05208990238602   15.93849584338609   12.68568464913804
Cl       12.86391225169848   15.28289603392052   12.11946076541638
C        15.79858484610136   14.68351299130132   10.90013779634802
H        15.25457032300767   14.12516774532825   10.14572085095012
C        16.21505628867031   14.03613153940155   12.07921980918933
H        16.01060233646717   12.98194996117557   12.22085062022136
C        16.98134504804831   14.74072834292230   13.02585825201477
H        17.36377053946401   14.22075604656363   13.89877954864439
C        17.34655274970876   16.08572344853637   12.80133690138820
H        18.02499514795829   16.58747840133421   13.48131480013530
C        16.90630450400195   16.73002505238362   11.62635142888205
H        17.21382344943553   17.74512596275181   11.40256846807342
C        16.15284154446306   16.02366476236907   10.66233092663801
H        15.91838658290626   16.50671693563531    9.72190601595275
N        14.42269313452385   15.54128012691836   14.58180191600046
N        14.28703757378756   16.42625060037515   15.57971563709673
N        14.12608311688262   18.34155224385646   14.22663506911830
N        13.46756438870951   18.50983090713331   12.19171086194493
N        14.13473721126233   19.15214641139443   10.01590507024610
N        15.45561859689630   18.94735180696260   10.01225032555862
C        13.92482181140296   14.39216066009754   15.01237554260812
H        13.89107679083877   13.52573165759078   14.37805416729867
C        13.46577287795822   14.53438797102662   16.32481582904894
H        13.01589124691542   13.78196808945059   16.93747248593733
C        13.70810894625445   15.84680960957041   16.65213575797805
H        13.51752924057415   16.38731723691933   17.55682968482005
C        14.74155232423750   17.78099795060986   15.40266154539191
H        15.83713702385864   17.78144383788491   15.27465261702472
H        14.47357331597963   18.37163388797308   16.28219324110317
C        13.37083801764088   19.48616253178622   14.15287155178441
H        13.19262852817539   20.11918377968341   14.99706274679018
C        12.96728715996945   19.59360044590222   12.86850602797415
H        12.36914698064776   20.34273490177701   12.39220986311630
C        14.19253104406718   17.73591325050493   13.01665628106272
C        13.27874206630356   18.29017198648370   10.77308739265470
H        13.51589397660318   17.23696699092331   10.57191985832208
H        12.23615937955969   18.48985570393948   10.51102561085128
C        15.97107266253740   19.91992979329312    9.28907444184989
H        17.02864259168819   19.97457087473088    9.12632163452321
C        14.96981599986486   20.78118548269935    8.81464897957894
H        15.09292833749400   21.64842867049514    8.20137157328990
C        13.80237675591407   20.25866234238131    9.30992689183212
H        12.78460338513309   20.57299718062576    9.19978656220745

