41
CSD_code = OSOKOY | q = 0 | S = 0 | Stoichiometry = C11H22Cl4N3Ta | MND = 6
Ta        5.31707816543456    1.79436235481122    3.24950275828797
Cl        4.29542243293865    3.89058461268524    2.69219568090518
Cl        3.30228970490728    0.79485819459210    2.56072814627729
Cl        5.76249179379723   -0.06885867988021    4.59007331248004
Cl        6.80088862886481    3.05265243928867    4.59197836385987
N         6.26009314761118    1.62748769493167    1.70524758003770
N         6.41211563152136    2.57932676134563   -0.46494504155834
N         3.90141921079288    2.23891253031580    5.33649117930273
C         6.88641740372767    1.51612302074503    0.56034559163311
C         7.83613121681747    0.61346898320194    0.25315931900042
H         8.32577905877794    0.56132449936484   -0.70318483041604
C         8.27975744927779   -0.39785789850134    1.26124333394895
H         8.14640309200213   -1.40547761123416    0.86837819618736
H         7.70673724431979   -0.29421477827204    2.17994126192044
H         9.33841295944007   -0.26793455700020    1.48644207847211
C         7.06705877522501    2.40998592283107   -1.78181849496130
H         6.86072818385502    1.39380880814350   -2.11840712936617
H         8.14120336318187    2.50987637050462   -1.62674245642166
C         6.63726319211556    3.38655975514717   -2.87063818419667
H         5.58674432740070    3.28304137521984   -3.12452401029056
H         7.21517428673957    3.16356086665591   -3.76456577667798
H         6.83677282397535    4.41870455997234   -2.59874002538182
C         6.71077302302511    3.91262926398337    0.13446231822233
H         6.32820806279782    4.68131946519498   -0.53771400458554
H         6.15281934472226    3.97058532888186    1.07291833857703
C         8.18379388512614    4.14198513446524    0.43131071090814
H         8.57320737535098    3.34308656580167    1.05649025910002
H         8.27398566494483    5.07148588093876    0.98613114761083
H         8.78853116955022    4.22737216660371   -0.46879676391158
C         4.92890484084758    2.45211035459412   -0.57422580595799
H         4.51537024716393    2.64110917166455    0.41877517859751
H         4.57091653205499    3.23141110497287   -1.24709506059756
C         4.46343066628319    1.08010412355309   -1.03237249853455
H         4.72228912817640    0.86876325472880   -2.06736172946949
H         3.38216993287866    1.04326063955948   -0.93710166490850
H         4.87418308905715    0.30852097630593   -0.38664339151214
C         3.77323417610077    2.27374645087214    6.47194237676892
C         3.61131631734963    2.31496816303871    7.88903287218632
H         2.59766279433443    2.62902723199150    8.13622653129934
H         4.32753556603836    3.02082196337385    8.30935806305634
H         3.79778609140855    1.32189753447603    8.29770227024704

