45
CSD_code = OSONIU | q = 0 | S = 0 | Stoichiometry = C19H22ClIrN2 | MND = 8
Ir        5.68340364212624   10.32501710500865    5.77045324966987
Cl        3.55230448286274   11.27965099152042    6.05528788727535
N         4.78788307422170    8.54828063338857    6.25404860344054
N         4.13462458491060    7.91710155007500    5.27035700094033
C         4.97548514670183    9.68597908792552    3.97317543100660
C         5.09446984530110   10.31671010961206    2.74090716624491
H         5.61831714223563   11.25725429087937    2.66848432712321
C         4.53781728731082    9.76867688974809    1.59580083457692
H         4.64980854674279   10.28002215718244    0.65087616600541
C         3.83154528553858    8.57821538648343    1.65196378175839
H         3.39622588849786    8.16103794314863    0.75669798387770
C         3.67258029592183    7.92872956912351    2.86202925232407
H         3.11095787172666    7.00889896015783    2.92096071246936
C         4.23978018701630    8.48724706427238    3.99751355265726
C         3.48153586310042    6.84437765347476    5.74714432143964
H         2.89161905840268    6.20515129398670    5.12371915019519
C         3.72599176471075    6.78725790766876    7.10308887032989
H         3.36100333777930    6.06041522138753    7.79855209796629
C         4.54827292196824    7.87945828557221    7.37566268086102
H         4.95508000751856    8.19680106025278    8.31469842944363
C         7.85074484010631   10.08334979989014    6.17922170573609
C         7.30926113598972   10.61443667780404    7.41503403924651
C         6.74792669116851   11.86159399497060    7.13990896975676
C         6.91766169986764   12.13451796321563    5.72192540717365
C         7.70676784198200   11.08239584764575    5.16791662028041
C         8.72838067771370    8.87587952124706    6.07612455723320
H         8.76928992474675    8.51453016055594    5.05113143240823
H         8.36852186800765    8.06859454698317    6.71133929548893
H         9.74378216906808    9.12555059910217    6.39119016100351
C         7.45033988649704    9.96726719157630    8.75611898006518
H         8.37550219268594   10.29655588694072    9.23408840593980
H         7.48997206048334    8.88331082089879    8.66528331474333
H         6.62033697514976   10.23005738354971    9.40934655744670
C         6.12494431292720   12.82120847466639    8.09859345596271
H         6.13754903568392   12.42837558633613    9.11213967781126
H         5.09028232702159   13.01933471549590    7.81807497347911
H         6.66595052235538   13.76817876595445    8.08395842690016
C         6.63014001038095   13.46749465000424    5.10340960023074
H         7.37205261726054   14.19967308959018    5.42914275186131
H         5.64625066488938   13.82014436275772    5.40524620774991
H         6.65399901493214   13.41338204733102    4.01779090429167
C         8.38215139186946   11.05997817519186    3.83249422767289
H         9.45631293656150   11.19648696728495    3.96910696960211
H         8.01676324283485   11.86079693091167    3.19603426455762
H         8.22250972530107   10.11372267904859    3.31885759386700

