45
CSD_code = OSONOA | q = 0 | S = 0 | Stoichiometry = C19H22ClN2Rh | MND = 8
Rh        1.14239025436684    3.63637550044942    2.70916546721529
Cl        3.25122498480249    2.74151472658116    2.42715725407798
N         1.97808132010448    5.43219429941482    2.25639255595652
N         2.61592954260459    6.04403715101607    3.25568830730951
C         1.84445909146688    4.21033137735649    4.50266481518203
C         1.77551841731307    3.51376368613638    5.70195018828535
H         1.29742971642738    2.54512909766089    5.74016756810561
C         2.33413968980067    4.03478264425864    6.85898168274094
H         2.26428337242484    3.47815281076991    7.78232296030077
C         2.99018412349277    5.25492664300873    6.84133006215809
H         3.42607234375214    5.65080642277057    7.74611703090384
C         3.10394582719541    5.95992876999309    5.65772583901954
H         3.63259368787669    6.90072583329838    5.62819418019782
C         2.53720444415658    5.42938798277286    4.50806624698930
C         3.25364373317661    7.14008822174740    2.81095219861428
H         3.83060310377675    7.77177188889254    3.45408699900630
C         3.01264055972559    7.22869025113923    1.45653524742209
H         3.36765981320656    7.97971071358185    0.78167550141418
C         2.20956325217809    6.12922778940619    1.15268486132326
H         1.81077433022239    5.82690618560250    0.20360292343130
C        -0.99898599905172    3.88193843118708    2.31632422937571
C        -0.85362963566581    2.89779374349196    3.33900008489696
C        -0.05357054038589    1.84211092122299    2.80183373839724
C         0.11706476259130    2.09485912061488    1.37820228600355
C        -0.44692457978912    3.34188719064148    1.08502953435506
C        -1.87558618075372    5.09322711023821    2.40248359547913
H        -2.88674895888323    4.83746856053067    2.07873659586007
H        -1.50965521458966    5.89506163956082    1.76395871297376
H        -1.92778880026765    5.46262534547864    3.42413919623124
C        -1.53058103391075    2.93674785489462    4.67434404055059
H        -1.39252681683087    3.89698669452100    5.16803643182033
H        -1.15309934343612    2.15735034471640    5.33004411844780
H        -2.60120954194485    2.77603699282405    4.53478935505184
C         0.23679786888756    0.51519668937843    3.43564867806600
H         0.16572164383805    0.56770195886877    4.51930089458519
H         1.23799832834804    0.17954941955707    3.17306507666298
H        -0.47941528945008   -0.22793379266101    3.07883478516918
C         0.72077140299358    1.11133316830219    0.42813252597230
H         0.73476671228885    1.50279323298115   -0.58569980058695
H         0.14132950799731    0.18705937808592    0.43998378484306
H         1.74308644668022    0.87441323346186    0.72167710633399
C        -0.62587068197336    3.95186497332394   -0.27198196592361
H         0.19694075681356    3.69084349176057   -0.93439769297254
H        -0.69221574328723    5.03618201521730   -0.21004548333231
H        -1.55261067832188    3.58415028594392   -0.71800171792424

