51
CSD_code = OSOQAP | q = 0 | S = 0 | Stoichiometry = C22H24Cl2NORh | MND = 8
Rh        6.51240860365859    9.80789062962120   11.01817392205260
Cl        5.63045996529706    8.88099614966171    9.11228295165934
Cl        7.70341254963223   11.29045245979796    9.70941481493313
O         9.44475206166054   11.21579493827679   12.29854160460292
H         8.90855608613487   11.29832885759442   11.47995491299175
N         8.38268173420543    8.58366983692387   10.92270327130122
C         8.51286190627892    7.75334917972004    9.89091600384246
H         7.59641686064581    7.49035840534330    9.37650517187418
C         9.73367663920740    7.26699074964271    9.46261009723436
H         9.78248680020978    6.59932476323036    8.61788542167407
C        10.87398540280379    7.68824643986560   10.12402941040528
H        11.85534118766083    7.37629240515952    9.79963875335157
C        10.73325656654664    8.52337831819881   11.21682732421748
H        11.60174460766392    8.87161132518659   11.75167549145762
C         9.46636334424212    8.93720450068556   11.62303174764435
C         9.37797434310924    9.90872003181258   12.80523479353268
C        10.55843512196569    9.69076687398681   13.74785291401870
C        10.81881821135275    8.42648224128661   14.26662527549745
H        10.21948047196496    7.58101197673504   13.95716047825811
C        11.85593690239148    8.23757515666570   15.16073959672856
H        12.05230143814787    7.25064445134258   15.55311533141397
C        12.64158745159248    9.30980534580966   15.55156165520306
H        13.45061149275660    9.16050776312212   16.25103564643929
C        12.38576762587656   10.56900179597439   15.03932572910940
H        12.99531865310075   11.40897373334460   15.33768683423031
C        11.34787521022024   10.75973543419702   14.14293182053681
H        11.14357940228565   11.73591410142103   13.73356565684745
C         8.12698131066785    9.72778342887839   13.74249761587826
H         8.17219979975198    8.73129702145286   14.18152944746754
H         8.27008060104960   10.45859756832017   14.54376523693118
C         6.79271304958308    9.94755915176830   13.11512774292767
C         5.81620576849791    8.89835715684588   12.83655668385275
C         4.69202990252939    9.50486306088242   12.22807493045362
C         4.98256508184060   10.90937930250796   12.05905848616845
C         6.24081917971310   11.18820740770564   12.71017640573020
C         5.90524103612563    7.47521481424781   13.28646947572531
H         5.33874964339268    6.82579836646777   12.62292866453829
H         5.48938005916377    7.38470439869797   14.29215702475873
H         6.93535996414051    7.12627002149881   13.30725331870865
C         3.40437880387934    8.84169070064621   11.87035409508199
H         3.55143625121741    7.78529771144613   11.66037506687205
H         2.96257474985404    9.30431190767194   10.99117004788729
H         2.70433843432729    8.93869417642545   12.70227875672794
C         4.01853736651909   11.94744763505215   11.58381136608768
H         3.37477461140327   12.25165848094965   12.41183960550433
H         3.39039774432525   11.56041658816194   10.78462448305048
H         4.54759547974212   12.82347716491698   11.21594791320678
C         6.79091046811865   12.55729685621603   12.93368324647552
H         6.93263486258884   13.07620046730016   11.98643067748989
H         7.75165129002447   12.51298862371934   13.43800927769028
H         6.08795390092770   13.13316012361740   13.53735379972878

