99
CSD_code = OSOXEB | q = 1 | S = 0 | Stoichiometry = C35H53N2O6P2Ru(1+) | MND = 8
Ru       12.12803647290665    0.77896581472576    3.67853030591238
N        12.18500280606876   -0.87955510376173    4.60426712332630
N        12.27248626434369   -1.38409503160876    5.65508432631973
C        12.70160041245867   -2.04180779089930    6.65443565533732
C        10.56776953123673   -2.62243151166392    7.98635022196715
H         9.87545098292246   -2.21649652990244    7.26172289322076
C        10.10764669193709   -3.20704535368780    9.15599555985072
H         9.04640497167328   -3.24538212887381    9.35095499802732
C        10.99292732157198   -3.74979701120450   10.07778272480790
H        10.60709086736198   -4.20042821941938   10.97923741694411
C        12.36124770296177   -3.72869973223544    9.85327350329808
H        13.04139501653559   -4.15988768586004   10.57136410812017
C        15.41863974096677   -3.35780643626813    8.67608345572318
H        15.49798915067941   -3.87036066671380    9.62232827318932
C        16.55348893542447   -3.06386181904291    7.93483338865104
H        17.52322135626483   -3.35153767343980    8.31147852224745
C        16.46620983516747   -2.40817829567092    6.71314427707561
H        17.36854897084407   -2.19847709924608    6.15889256053371
C        15.23805569075893   -2.02339821925903    6.19705648602531
H        15.16069082133829   -1.50488784860056    5.25137596475740
C        11.93253647369687   -2.58903891176056    7.75765352984488
C        12.83559040347734   -3.14903365970263    8.69015853608280
C        14.10651952660556   -2.31428211136363    6.93524928717797
C        14.18357752674162   -2.98390136959560    8.17527970786612
C        13.09415333631395    1.84904294680214    1.89362958862072
C        11.68735315788601    1.96335323382578    1.79130718294009
C        11.13374859869345    0.62422897650869    1.70233847888424
C        12.22032741875736   -0.29749550402216    1.71795845904984
C        13.43017856619465    0.44444095601450    1.91850759118090
C        14.08099995185829    2.95961488729574    1.72764532190314
H        14.36002863037407    3.02173370892214    0.67367272249577
H        14.98310209410178    2.77467129562842    2.30402662118531
H        13.66146189242600    3.91826984087657    2.02415779205381
C        10.92276070004391    3.21379274391378    1.48126181951524
H        10.91065219004349    3.36489804503118    0.39965485035195
H        11.37992533788351    4.08846204222176    1.93964723664618
H         9.89324745363971    3.14179849214456    1.82344162099616
C         9.72865242248296    0.33671847901844    1.26723571683438
H         9.00717559607134    0.90978384856708    1.84810421939627
H         9.49171756888236   -0.72019087143362    1.36285834400732
H         9.61448363346697    0.61641977640349    0.21821151856997
C        12.14526820117247   -1.76775001840615    1.45106332959959
H        11.15314698717537   -2.16327181873808    1.65748895307897
H        12.86585358355618   -2.31675159049332    2.05473882209485
H        12.37405265352498   -1.95263914819859    0.40003882859324
C        14.81678145826171   -0.09846046898749    1.76265420463632
H        14.85891137070344   -1.15118513998185    2.03258042439431
H        15.51763584589649    0.44875025756506    2.38812270547098
H        15.13160565924196    0.00115107542539    0.72207587909341
P        13.59261006827763    1.62360342469903    5.23440603419879
O        15.01767245210746    1.63285746431070    4.50854381453858
O        13.40743688128675    3.11404558273105    5.81737651106081
O        13.98802984867529    0.89729639840644    6.59349814911327
C        16.18403822467777    2.17972376901574    5.14615957407910
H        16.68450914755939    2.79084594096244    4.38813785958610
H        15.87790702749285    2.82270692095876    5.97570547937493
C        17.10411718857829    1.07790579927717    5.63722628816727
H        16.60087140409308    0.48192788441332    6.39293014875645
H        18.00126460105572    1.51818331546595    6.06384711611291
H        17.38846780025170    0.43084635499724    4.81143394261554
C        12.79975174062875    4.17469495417466    5.09051893811193
H        13.58927353609567    4.75713117238674    4.60338413087737
H        12.13404574473440    3.75221948898469    4.32626650351520
C        12.01280287892111    5.04377387404150    6.05534837266014
H        11.21431486209932    4.45980002524125    6.50424675022682
H        11.58356602762919    5.88758669557627    5.52331456567646
H        12.66439226122802    5.41449432114791    6.84215711867476
C        13.33476275170180    1.02385425408937    7.85793282137311
H        12.52857237489032    0.28796298074540    7.91011823929094
H        12.91286592458726    2.02738733170013    7.94494511120593
C        14.36494536889787    0.76915281134005    8.94493557111671
H        14.80493201537162   -0.21654380133429    8.81872263361286
H        13.88761486201041    0.81954992923335    9.91933765340127
H        15.15563138892188    1.51304389274673    8.89836672040564
P        10.30084182423178    1.48672151088248    4.83507784909128
O         8.90727734636318    0.70291527991217    4.61357757461153
O         9.75831883980523    2.97338493033032    4.63241676892914
O        10.57692937804981    1.34320243573075    6.42537503806522
C         8.86783831606448   -0.72422729191876    4.61081932709027
H         9.68718742465455   -1.10656872945441    3.98736877491064
H         9.01632923995780   -1.08604311888355    5.63361601639303
C         7.51784923239635   -1.17106596290473    4.08023653777319
H         6.71998649374459   -0.77928625789205    4.70550458831224
H         7.46662573861160   -2.25592650569915    4.08266879031861
H         7.36927919935438   -0.81150278368114    3.06594667809089
C         8.38881162087123    3.38720025813724    4.47001688620926
H         7.96165867118985    2.88676063765932    3.59722789448570
H         7.80614207033208    3.10028437882500    5.34854922895051
C         8.38329943960702    4.89363991893849    4.29001825559497
H         8.79632301522277    5.37990869382992    5.16912866412810
H         7.36324882052578    5.23640269065629    4.14276013977096
H         8.97935786896010    5.17387934710845    3.42599093396124
C         9.53485822426338    1.64406402624406    7.37354722285996
H         9.46781156138504    2.73113440372912    7.48336542262570
H         8.57929079838727    1.27336546574219    6.98687347624411
C         9.84368357339167    0.99705629916066    8.71172584748034
H         9.99972541417188   -0.07240716154870    8.59470374994012
H         9.00568638893931    1.15754696999865    9.38478634878562
H        10.73529133512554    1.43234812892152    9.15228287971808

