118
CSD_code = OSUCUB | q = 0 | S = 0 | Stoichiometry = C58H54N2OP2Ru | MND = 6
Ru       10.74057683168826    4.94705196497801   14.39298666977474
P         8.94014324500312    5.62160348003393   15.67640325475384
P        10.02855951891709    2.83069521435269   13.75005267417961
O        12.41136588731029    3.46210768629439   16.40534673792110
N        11.39122330493300    7.64843891584365   13.51121955483193
N        12.38400804093312    7.47606264488559   15.41760718515350
C        11.71729951429611    4.07677527575821   15.70714497020051
C        11.58257516052844    6.81164099729206   14.54623480492133
C        12.05544475939677    8.83366431959883   13.70962826542116
C        12.69973350440634    8.71973346829592   14.91077639951293
C        12.80627925700893    6.91031528654007   16.68577439931039
H        12.04554987499604    6.15122008665717   16.91109199833744
C        12.81546885660946    7.93143279037212   17.81842872040009
H        13.67024606587573    8.59835838399240   17.74872499109884
H        12.87066788349402    7.40513268930796   18.76831969027426
H        11.90422573449761    8.52476791676498   17.80540729850161
C        14.15646705859282    6.20914769511564   16.54117976232914
H        14.13574062030806    5.54732674770012   15.67703999403459
H        14.35782654242045    5.61265171046545   17.42683962908917
H        14.95915600666071    6.93142000615620   16.42058846231140
C        10.72652656324112    7.19554522273526   12.30133468181952
H        10.09767530792791    8.01646998459653   11.92856121565527
C        11.79489677382618    6.90475317851093   11.24556720181331
H        12.41533744862054    7.78385275878609   11.07281456644634
H        11.32178747685238    6.62236836581726   10.30871558765906
H        12.42443269135716    6.08383920483263   11.58363206869440
C         9.89142579418173    5.95795070692375   12.65910971669000
H         9.87847917840825    5.33091063567028   11.75694337316686
H         8.84511942951935    6.29804582742154   12.77639007533140
C        12.05371519026325    9.98463687014452   12.80956564993177
C        10.86580658558149   10.52649171973871   12.32439061887043
H         9.91944800612780   10.09043265611057   12.60923761099581
C        10.88612917407682   11.63423386119829   11.49775774290795
H         9.95711822354142   12.04401493343546   11.12830350952173
C        12.08994559410583   12.22243125359625   11.14897945575322
H        12.10340123859180   13.08750083092864   10.50279223449412
C        13.27573611162528   11.69825150639900   11.63599938654503
H        14.21810261112096   12.15430259414701   11.37024396590709
C        13.25965937362116   10.58880250492024   12.45956604354564
H        14.18559890602150   10.17653458556080   12.83161914644947
C        13.53849520576640    9.75691921519481   15.52193428434271
C        14.92217867431569    9.62261672419381   15.59056080957253
H        15.39099735008722    8.72438539557976   15.21512279491909
C        15.69786160313762   10.64120121517734   16.11296486873162
H        16.77087772773944   10.52634751650743   16.16344214729127
C        15.10357803509177   11.80955178452890   16.55965384697610
H        15.71136323172802   12.60426780664704   16.96593286978125
C        13.72965903021282   11.95956488821415   16.47315657225127
H        13.26418719227653   12.87439532159484   16.80946529473312
C        12.95098904367529   10.94208898155681   15.95414630625289
H        11.87946027188782   11.05368946805570   15.88259617916041
C         9.07903629976803    7.33782453240301   16.31715349441002
C         9.10854044756391    8.35929943756189   15.36661867529189
H         8.98580943850974    8.10501503890776   14.32296060051064
C         9.27201912559440    9.67666086545479   15.74654184123218
H         9.29064676092285   10.45866877479529   15.00015018087216
C         9.40553866777374    9.99875127751372   17.08841651068726
H         9.53224595703631   11.02822217318868   17.39111245973282
C         9.36781433166561    8.99462785476433   18.03949749422018
H         9.46194637377540    9.24023460738363   19.08790985104764
C         9.20781786743229    7.67150030680994   17.65930650934025
H         9.17908109112820    6.90350656092935   18.41825904620152
C         8.52315936527622    4.75153391589911   17.24071380995958
C         9.56955450248414    4.49909873809757   18.12597905947525
H        10.57283336739180    4.80386997184112   17.85760396801389
C         9.34503535255594    3.86443567817931   19.33185520433874
H        10.16958671494557    3.68037910477064   20.00584474444424
C         8.06346524584359    3.46020786628855   19.67017937778078
H         7.88292239683051    2.95787637199593   20.60948648689408
C         7.01758941707349    3.70191548292800   18.79735272341643
H         6.01601833869359    3.38810670808989   19.05409260981082
C         7.24104514795127    4.34743506717472   17.59312747646586
H         6.40741201971145    4.53073370310268   16.93183953891268
C         7.25055019583212    5.70098274944147   14.95666941651402
C         6.41436201895442    6.81120388549536   14.96051759774316
H         6.73083490311339    7.73708477549015   15.41819772785984
C         5.15846281827988    6.73595831603648   14.38108699161401
H         4.51884873753661    7.60721527076498   14.38445811542647
C         4.71685672563135    5.55724864830513   13.80485749253303
H         3.73653619246550    5.50843915944268   13.35376962046156
C         5.53583985140425    4.43955358822696   13.81582662592233
H         5.19996223845058    3.51028819840539   13.37833670760801
C         6.79150147286777    4.51696481062042   14.38579385905536
H         7.43539393119895    3.64668679878960   14.40717014685784
C         8.95722995398299    1.80464786075354   14.84105876694127
C         9.25527665600745    1.79058423150196   16.20158534453727
H        10.09960562768249    2.36008227688245   16.56388197237604
C         8.48941291277128    1.05656648037975   17.08706854456397
H         8.74189119401161    1.04979100547030   18.13736480646347
C         7.39813629157985    0.33887228484793   16.62684790634784
H         6.79133969504606   -0.22825549882858   17.31748627632618
C         7.08941365876282    0.35060979759146   15.27747600671490
H         6.23996250716771   -0.20905074272973   14.91243104422046
C         7.86440009914619    1.07273531853113   14.38683554183740
H         7.61061656558367    1.06948831546064   13.33646371494998
C         9.24175809991723    2.43764733637752   12.13397921475398
C         8.25260263450868    3.28107663793075   11.63685914316197
H         7.97696882765302    4.16418654730239   12.19171269608589
C         7.61477111268267    2.99531986704413   10.44297329591897
H         6.85042995686544    3.66288338228891   10.07105289306304
C         7.95490730808122    1.86011655682087    9.72761302780585
H         7.46197644297507    1.63795146479978    8.79223983468426
C         8.92785724798796    1.00656290114359   10.22117782491180
H         9.19065818798564    0.11252698108677    9.67384437747660
C         9.56505206689101    1.28831729121972   11.41602453255184
H        10.31305788716365    0.60611110308609   11.79377921897601
C        11.49287125856288    1.73126011362842   13.63039792218441
C        11.77568311667339    0.69041659102177   14.50427540185367
H        11.08950334603963    0.44000452964021   15.30049522343662
C        12.94497627593407   -0.03956707274950   14.36099495302393
H        13.15807466045059   -0.84367603840573   15.05095717191653
C        13.83530234822947    0.25509178055671   13.34483680390867
H        14.74617415419893   -0.31621818136148   13.23888108724039
C        13.55436142652479    1.28731021231089   12.46215160060516
H        14.24456072755619    1.51981264878721   11.66373260383056
C        12.39493187891695    2.02141349521847   12.60713348186071
H        12.17014115650157    2.83397346131884   11.92782765056335
H        11.93988068759544    4.69553202263844   13.46837886164496

