55
CSD_code = OSULOE | q = 1 | S = 0 | Stoichiometry = C24H25N4ORu(1+) | MND = 8
Ru        3.69075426589552    4.32133025975713    5.01401015766532
O         1.59456421975114    5.48670107920497    3.49900187112784
N         2.13224986141396    2.98969335787506    7.17666099930660
N         2.74696287684318    2.90997649608769    6.03727060150740
N         3.99412137069189    2.58754688788399    3.82341948092045
N         2.41771730449372    4.93799833805902    4.09608283183118
C         4.31145314704847    5.47131400757419    6.80541049146712
C         5.19634684215060    4.33665934197731    6.66801465059920
C         5.92886278185255    4.48782336877372    5.45796961835992
C         5.47202146159389    5.68450004225266    4.79931542474052
C         4.49642225969768    6.30952333984202    5.65465592532117
C         3.52438528859077    5.77922078953841    8.03304405790009
C         5.48469230000026    3.36062716687675    7.76890382832035
C         7.09946021365684    3.65846224039818    5.03478515597401
C         6.13883904601387    6.34130689733613    3.63096143543595
C         3.94083949588176    7.68669355024603    5.47250027454901
C         1.73254449785689    1.75029809841463    7.52076255065799
C         2.13340983845004    0.84144677586208    6.52364905686537
C         2.78909941130626    1.62691156232887    5.57800466660411
C         3.47123840106569    1.44639514444813    4.33206822080088
C         3.61654441886045    0.23075469004410    3.65478753684853
C         4.28975830672288    0.20645115920287    2.45314884462411
C         4.80677562357972    1.39425207647614    1.93828972039737
C         4.63291204326168    2.56028182678817    2.65533431613905
C         1.01076462069244    1.50006703007866    8.75547099862017
C         0.78830142409848    0.19971693124356    9.20772891534109
C         0.09932489220426   -0.01856929697026   10.38546002734960
C        -0.37523942096982    1.05184389960169   11.12613890066574
C        -0.15779030395036    2.34737246466474   10.68411103049907
C         0.52981951064125    2.57225025215823    9.50806245768280
H         4.20282600404258    5.93175310576465    8.87276734917280
H         2.92255867328960    6.67421449392377    7.90397032716583
H         2.86542765670037    4.94453277420040    8.27713606317231
H         6.22135400918123    3.79333515411606    8.44789897237152
H         4.58467900215028    3.14396824886282    8.34155234298655
H         5.88673544546395    2.42528597221638    7.38360037760928
H         7.20369529412313    3.62245050055124    3.95218132988659
H         8.00902178446541    4.10333271996236    5.44293276546561
H         7.02597562416392    2.64020647119409    5.41206023482644
H         6.62049579967220    5.61373725241449    2.98204636001331
H         6.90912346423696    7.02268786635899    3.99664832948308
H         5.43318294151461    6.92156006866749    3.04014542748789
H         3.86897784776012    7.95510911248539    4.42059708410468
H         2.95533340487049    7.78286345827995    5.92331653474272
H         4.60704160883696    8.40215187675894    5.95810595874614
H         1.96564387451689   -0.21415974787398    6.48860454554935
H         3.19208206854477   -0.66160658184876    4.08435139570934
H         4.41029017256075   -0.71877103819298    1.91201987435379
H         5.32791405605582    1.41261700897440    0.99584702698312
H         5.00583089603368    3.50650864227543    2.28243067672246
H         1.15959732451211   -0.64137277763836    8.64254489039551
H        -0.06869512452958   -1.02852704574558   10.72762409363420
H        -0.91428589698226    0.87648418009852   12.04443617204187
H        -0.52905422153237    3.18313457709250   11.25783758276885
H         0.69409229092727    3.57665392906485    9.14932023646869

