85
CSD_code = OSUTOM | q = 0 | S = 0 | Stoichiometry = C38H40Cl2N2O2Ti | MND = 6
Ti       10.17851290835265    2.43622760551519   13.73933386403741
Cl       10.95138486845148    2.82830839493356   15.79173215151944
Cl        9.09244497825100    0.55052529832802   14.21631039520315
O        11.63433080217850    1.64194837774663   13.23670495838725
O         8.76087424327081    3.41503007394222   13.92929953431025
N        11.27831751423304    4.18420748658920   12.92296244695419
N         9.44209858642423    2.41112961356741   11.64570769440620
C        12.36878499388795    4.14488744295347   12.24004949287374
C        13.18349238911345    2.98406519271552   12.07875255627413
C        12.77983611319840    1.74529007456808   12.64525792780803
C        13.63157582217377    0.61410434764659   12.54863239833687
C        14.82261842508557    0.73712125079770   11.87037918711854
C        15.20671525210787    1.94616312549793   11.28284349618490
C        14.40679051389294    3.05421572283211   11.39131440556660
C        13.13860325385013   -0.63120615348404   13.23565664634202
C        13.24355500666247   -0.47017030391743   14.76170988589763
C        12.58900995719052   -1.66202704626597   15.45259376478285
C        13.23671547731727   -2.96906948727675   15.00451574905192
C        13.16644433424497   -3.11179496503922   13.48673951550643
C        13.83637112828868   -1.91917578586258   12.80864854152274
C        10.55161047407230    5.37845156435274   13.00975142283464
C        10.23216359868048    5.89115327643042   14.26806663901020
C         9.44497436066345    7.02244180824251   14.36631782766638
C         8.96283097625393    7.64619135117311   13.22568315695597
C         9.29223347360188    7.14915906359999   11.97710777473284
C        10.09398201304922    6.02752678491662   11.86422975150995
C         8.50235575823789    3.14585413966705   11.16186684300044
C         7.61208601284538    3.94225496441607   11.94322179424783
C         7.76466542634818    4.00624213125236   13.35433235279232
C         6.82754705911913    4.73391077448141   14.13332252382869
C         5.80657706282462    5.39781533872974   13.49258553829100
C         5.67475692681462    5.36558958180754   12.10114641697996
C         6.55551983070824    4.64337610746831   11.33821915136038
C         7.04213431227923    4.68424663228652   15.62246408370491
C         6.29898983288842    5.75616117229471   16.41425372031759
C         6.69072317425978    5.66751881711321   17.88723905466022
C         6.35060771956776    4.28871573070215   18.44588156108480
C         7.04452911596969    3.19542438768194   17.63856782705581
C         6.66975096143371    3.29330823043323   16.16338622464445
C        10.26390462138700    1.67102579671459   10.78622470453492
C        10.39368899854084    0.29562516711892   10.98582208136665
C        11.26600825610724   -0.43090558115116   10.19819444737080
C        12.01984332847569    0.19705902622840    9.21841624335017
C        11.88025168308735    1.55746622796175    9.00794250611677
C        10.99726327531620    2.29355379026034    9.77747581367377
H        12.74325097670554    5.06723142017383   11.77609255114107
H        15.48067082454568   -0.11330020822886   11.78232184211216
H        16.14488760211625    2.00388984035901   10.75246701865966
H        14.70923771730498    3.99647340829022   10.95690683131499
H        12.06883976972666   -0.71934288751623   13.00238527888217
H        14.29671520137182   -0.39932784745091   15.04741651662399
H        12.74033889729755    0.45042306580261   15.07377209004059
H        12.67993897955669   -1.55369096461601   16.53500305937812
H        11.52450091443886   -1.67143044682357   15.20647122193522
H        14.28346076594624   -2.98114161601704   15.31931796339780
H        12.73569258972480   -3.81477794986447   15.47977520967672
H        13.65474737187786   -4.03866638994760   13.17626373935548
H        12.11994424940153   -3.16342883856697   13.17794240116894
H        13.78834878800954   -2.02748205966483   11.72222936156129
H        14.88763991075838   -1.88888816469807   13.10390789642508
H        10.61262361999719    5.38855508190401   15.14907618644301
H         9.20135064628662    7.41895121968261   15.34050800742008
H         8.33358263683957    8.51886808030999   13.30998439364078
H         8.92361185473270    7.63366733494226   11.08531142217609
H        10.34156949291662    5.62734111819081   10.88974216588595
H         8.32352048399800    3.14144724461351   10.07826593419517
H         5.08804551361237    5.96083868304121   14.06765983912631
H         4.86578280343627    5.90457648120092   11.63227534051262
H         6.44493225914464    4.59777884746090   10.26411112215130
H         8.12029349926087    4.80870759914699   15.79189785921786
H         6.53965890174889    6.74633144395509   16.01934298825879
H         5.22086723211859    5.60455898512542   16.32536588540670
H         7.76428589958474    5.84205178411942   17.98791594525649
H         6.16951303005487    6.44010463278904   18.45766420030727
H         6.65411113290659    4.22784653751734   19.49291801798161
H         5.26859417827895    4.13941740258150   18.40262153235635
H         8.12844066704236    3.29428048462027   17.73449170014889
H         6.76393556355611    2.21331643699871   18.02376490311593
H         5.59618982615856    3.12975575182720   16.03482547546804
H         7.20451563058270    2.52079915424481   15.60187426513869
H         9.80185787769118   -0.17829524452275   11.75956904174904
H        11.36291504400649   -1.49506169538728   10.35256621514733
H        12.71300038060185   -0.37315277577878    8.61922812444180
H        12.46116553446852    2.05090177998995    8.24309194407570
H        10.89634691149791    3.36022672022080    9.62549043553373

