77
CSD_code = OSUYOS | q = 0 | S = 0 | Stoichiometry = C31H38Cl2MoO3P2 | MND = 9
Mo        8.82384557631914   12.56835962592362    2.61902641503678
Cl        7.59341942119896   10.39686460578037    2.68325971246609
Cl       10.17167339491914   11.55740510569068    4.43610627054104
P        10.67253791950914   11.25234840586588    1.56136321848840
P         7.66836212097111   13.04288237297464    4.78804591337673
C         6.92674967547481   13.16945714843060    1.54657759882884
H         5.94181659722053   12.73495521280498    1.70569428608861
C         7.81852827106330   12.64543079500934    0.59767102193339
H         7.55823899233415   11.78601666838217   -0.01703661936437
C         9.16287966792396   14.79290403402950    0.59366348980566
C        10.72536480881584   11.64650241170140   -0.21382280464458
C        10.04462141323219   13.22590374125517   -1.90530381871482
H         9.45951900343087   14.08527840423472   -2.19423295557376
C         7.30357330296390   14.36202671686366    2.21401628537441
C         6.33582803631461   14.24485817710920    4.48852945358167
C        10.88099734196328   12.60625632652657   -2.81492261690445
H        10.94961594937691   12.98346001035586   -3.82388985439762
C         6.35683442148566   14.85850882530923    3.23786102179869
C         8.20240106184884   15.35674795951795    1.62097433979331
C         9.95833081281771   12.74228802134365   -0.60437354968028
C        10.07073921799275   14.02408487114017    2.97066060213117
C         5.47613664256558   15.89684388064070    2.95532250156915
H         5.51072050628533   16.37700934237121    1.98955756909929
C         9.02944971462420   13.34949452998509    0.37486576344457
C         8.74753847907390   14.03052047861609    5.96549863489393
H         9.76297006806336   13.64725493535206    5.80374624122261
C         6.78559438121342   11.77218089142178    5.82250491432255
H         6.51860486717947   12.30302202823442    6.74599836621472
C        12.37176631226933   11.85748908654724    2.08472836450940
H        12.25597559401638   12.14246383482917    3.13801303011945
C        11.62700005875719   11.50065280976857   -2.43637869270816
H        12.27521562766674   11.01570790675173   -3.15127769443998
C         5.50229579792539   11.30930995630677    5.13479737640981
H         4.85105451291522   12.14624633463031    4.88786232551442
H         4.96034513403332   10.63783293701242    5.79874226677742
H         5.73430031439703   10.76465212929574    4.22388634568645
C         4.52946619794304   15.68441863635615    5.15095811924160
H         3.81570781768540   16.00513358239577    5.89536483104474
C         5.41252097804057   14.66156057239220    5.44309175665555
H         5.37983892592358   14.19262569414372    6.41535295048029
C         7.66697660707320   10.57935568931420    6.17349710813296
H         7.90545664073445   10.01317716628554    5.27588669958317
H         7.13535317927129    9.92175855991946    6.85979997080585
H         8.60003677557668   10.88930672826438    6.64061880529818
C         4.56817449175093   16.30785703815527    3.91321010994704
H         3.88575083215073   17.11493564831896    3.69430058025932
C        10.76322748587970    9.39414788893859    1.52661459025478
H        11.75057765576319    9.17114012625083    1.10091120148873
C        10.66986020518920    8.77327257587878    2.91543378982312
H        11.40744957753878    9.19358748646634    3.59676880663920
H        10.83110160248150    7.69838803737012    2.84701695757756
H         9.68097578004927    8.94293640017667    3.33540074792195
C        12.75446960678108   13.09994547715434    1.27782071298783
H        13.10184595444174   12.82290896150312    0.28427922815633
H        13.55944579481244   13.62828958718070    1.78465922608965
H        11.92480892648808   13.79389715665690    1.15827009222621
C        11.55695971165903   11.02433209033037   -1.14036793175012
H        12.15287177592299   10.17010375275370   -0.85495395920428
C        13.49593663507795   10.82869000812215    1.99311193995368
H        13.30935303229269    9.96389810452108    2.62434457142981
H        14.41883519209151   11.29579036839055    2.33371792507737
H        13.65374525890203   10.50198383938723    0.96716706448300
C         8.71364035373916   15.51215042084379    5.58484832620553
H         8.76915228370795   15.67023614702770    4.50964803956636
H         9.55948707321468   16.02362002264181    6.03979375679617
H         7.79935779052946   15.98171209968035    5.94282083043693
C         8.41560884722912   13.88180412051927    7.44811228436872
H         7.41245223749176   14.24100729075083    7.66918317172535
H         9.11475980525847   14.48972103002710    8.02047086533732
H         8.51556309307876   12.85391584011918    7.78665771939685
C         9.69025308647511    8.81752736460825    0.60461512523647
H         8.69981410187592    9.00814892268014    1.00848317774185
H         9.82071430389466    7.73916138512904    0.53023120987386
H         9.74907306762429    9.23974562741806   -0.39739090818664
O         8.23956049565425   16.52239125193927    1.97264820999393
O        10.02052711958365   15.47655079114235    0.06389114991827
O        10.85464468097003   14.80094598682582    3.26837642437581

