94
CSD_code = OTABIW | q = 0 | S = 0 | Stoichiometry = C35H52ClN2O3Re | MND = 6
Re        7.42451516606348    9.37660031093908   14.16211793644723
O         6.50972294967958   10.20830354366334   13.05205657507495
Cl        5.92527100621052    9.65657478643710   15.90997105564682
C         6.47520081325864    6.57445813374281   14.66873837262616
H         5.95938713851735    5.65745212336977   14.37627382496118
N         6.59928047005051    7.51078356429984   13.78935554484703
C        10.11391405220528    9.37271477728875   12.81028024816397
H        10.83046612121193    9.02799210042156   12.05681808879170
N         8.89500409571870    8.97147659217611   12.69462529848151
C         6.34704660686906    7.20894926237731   12.40589070657050
H         5.80647902145920    8.04997470295133   11.96216216344465
H         5.74619918188850    6.29621562917785   12.31403560303229
C         7.68547375595214    7.00071844012568   11.64774557996443
C         8.46737881449204    8.32081189247333   11.48019508919667
H         9.33627778115360    8.12494008408348   10.83729304011951
H         7.81452973610046    9.03952826097659   10.96973943240361
C         8.56273409754814    5.97513035207591   12.36991499959038
H         8.01557835868098    5.05091656848450   12.54346759004349
H         8.90465214681570    6.35913580687054   13.32927096570982
H         9.43833522643201    5.74403074412074   11.76672563455269
C         7.33962508041206    6.48871801199027   10.24571458398391
H         8.24092162830575    6.35821407451165    9.65168343412447
H         6.68800707386242    7.19061914722467    9.73184624196349
H         6.83244795092150    5.52903826734895   10.30620171107474
O         8.44981937159085    8.36723020767359   15.37338042119225
C         8.18898549839982    7.41748685597672   16.22096568200752
C         7.08228476720465    6.55864605019428   15.96153577159656
C         6.71822103468937    5.57164433826015   16.88668397568986
H         5.86017886218504    4.96436252201794   16.64867165680577
C         7.41449520372792    5.40662350453171   18.06047487353650
C         8.55325151098343    6.20175505647875   18.25537260124526
H         9.12407182468598    6.04391853176931   19.15418610095959
C         8.98168264836201    7.16772543036605   17.37057585258686
O         8.60316409452116   10.99968241841193   14.77864058694838
C         9.86332526849522   11.14068539988122   14.58078498147608
C        10.65810249580519   10.28063179878210   13.75844352868683
C        12.06674792661226   10.40033911760246   13.77186991631557
H        12.62181835875931    9.70391659467756   13.16280781958816
C        12.70748627307368   11.33929800086731   14.53072559413331
C        11.90130758613951   12.27554409043377   15.20843406568609
H        12.40135140626164   13.06793110854411   15.73855173966984
C        10.53163465852842   12.24060159814641   15.21994310239469
C         7.02070959857874    4.40356049393245   19.13260569210487
C         5.75479435411523    3.62539706543179   18.76449724647930
H         5.50338032689549    2.93977002090003   19.57098411929723
H         5.90362773512427    3.03861398494456   17.86079194547361
H         4.91339020991995    4.29853590137764   18.62050214755612
C         8.16167170695784    3.39668928378311   19.33638130012367
H         7.88058761457854    2.66179709574638   20.08749343810881
H         9.07250044234039    3.88748237445713   19.66778327661933
H         8.37460946271422    2.87445799701491   18.40567753916366
C         6.75242649747127    5.16153717739798   20.44020340366586
H         5.97117952330912    5.90274050141710   20.28849555346130
H         7.64291908551461    5.67394087377926   20.79308399822549
H         6.42892390000563    4.46946440774541   21.21471666554981
C        10.24208932067304    7.98792637849883   17.60675878576286
C        11.01314459375761    7.54659308432852   18.85496667108226
H        11.31116825712161    6.50199101475722   18.78809265084691
H        10.42434623451135    7.69692284709380   19.75677202235034
H        11.91546258016479    8.14819927549194   18.94460152565776
C        11.17644353887686    7.82834929304067   16.39783260227173
H        11.45721887835759    6.78339170277520   16.26999540104109
H        12.08001332551346    8.41705881412878   16.54356394523803
H        10.69840306427109    8.17588260457830   15.48684856478387
C         9.85354724041702    9.46051015569087   17.77825399385144
H        10.74697226394954   10.07243830722705   17.88895592287593
H         9.22689991592787    9.58539548748324   18.65898694861419
H         9.29906171156656    9.81909843857180   16.91776846849671
C        14.21961953728695   11.44829295357966   14.64121844158242
C        14.94292703088398   10.35414001637615   13.85101357685864
H        14.65082285702830    9.36503417022335   14.19656962345499
H        16.01739986840032   10.45573387461690   13.98965375076454
H        14.73346986783576   10.43705229412473   12.78706345129096
C        14.67559614796015   12.81055300677270   14.10068346502840
H        14.35964140906546   12.92889138657270   13.06632925611177
H        15.76026487398226   12.88579836281364   14.14159170801830
H        14.25737442787353   13.62878082287083   14.67990583436535
C        14.61832117196537   11.31357496928425   16.11765879645864
H        14.16401759378621   12.09200917187411   16.72414200343214
H        15.69874085844329   11.38604008843327   16.22372628611502
H        14.29824148326820   10.34873234475182   16.50608122369742
C         9.69618267864788   13.34184062891097   15.86270983535158
C        10.55897572010087   14.50541283250974   16.36581625711558
H        11.21622733077101   14.19321946377793   17.17488920921139
H         9.90836697112289   15.28666851800890   16.75274597746485
H        11.15408740745551   14.93347729693742   15.56163261884808
C         8.73258558461209   13.89698592819586   14.80228627853244
H         9.28786332408043   14.26650020979355   13.94141577504790
H         8.15516791011713   14.71796292855195   15.22117658011368
H         8.04106467735900   13.12810052007733   14.47037249808254
C         8.89255506468995   12.80162283882293   17.05234306882727
H         8.19718764132457   12.03303262232944   16.73205646137424
H         8.32130446180605   13.60963143210695   17.50423891930928
H         9.55882565365774   12.38614693435176   17.80529328350972

