37
CSD_code = OTADIY | q = 0 | S = 0 | Stoichiometry = C12H14Cl2N4O4Pd | MND = 4
C        25.19517148056523    8.15260396082069    4.37703511822262
C        24.24898754385343    7.12923758512962    4.20071407353463
N        23.08477778546305    7.68737260085810    3.89271744300814
N        23.25690035595803    9.02044403118328    3.86777772942138
C        24.53044261506460    9.35366290018158    4.15911259190907
C        24.36300578046269    5.65087921651205    4.29323977832726
C        24.99458968120111   10.75493925845500    4.20758659564685
C        26.70411887067636    7.96559348547301    4.75819536741133
O        26.98588632457282    6.79707109671008    4.95950298375193
O        27.30121385241692    9.02873431024649    4.78072877495410
H        24.26261805565386    5.21261910414422    3.29328402833738
H        25.33987502189999    5.39184794731917    4.69628791398573
H        23.57131200925469    5.25503354045086    4.94910767747198
H        24.47571500785199   11.30081090407858    4.99473045879840
H        26.06245701307583   10.76218314730161    4.41189800111703
H        24.80382000380428   11.25396052093119    3.25862716768209
H        22.48813668322169    9.64763280167724    3.66525814896641
Pd       21.50171125926276    6.54227316792115    3.56767364815975
Cl       20.89420257658339    6.78501504019531    5.71681486890429
C        17.80802240091813    4.93215585878217    2.75828518652410
C        18.75415854064443    5.95557244448408    2.93462162901674
N        19.91836940961521    5.39749108807848    3.24273098103042
N        19.74632159124491    4.06441587177693    3.26757898013892
C        18.47280661950306    3.73113259197123    2.97621681414003
C        18.64004135435308    7.43392116905040    2.84205929715648
C        18.00875520713551    2.32982410945195    2.92774713955604
C        16.29907014029359    5.11915304339674    2.37718530370021
O        16.01725485762081    6.28763205349603    2.17573163526786
O        15.70205709491108    4.05596392185163    2.35457467322298
H        18.74035303624190    7.87216712517995    3.84203083143707
H        17.66316450934372    7.69288041093883    2.43897806701970
H        19.43172806072966    7.82984753844914    2.18622436475675
H        18.52762466540478    1.78399137143638    2.14057152715915
H        16.94087570264069    2.32250108106791    2.72350337011055
H        18.19962816151924    1.83081723192320    3.87669240430759
H        20.51512081193430    3.43726444685545    3.47008146342253
Cl       22.10890591510599    6.30015402221860    1.41809396242328

