84
CSD_code = OTAFUL | q = 0 | S = 0 | Stoichiometry = C28H44Cl2O7P2Pt | MND = 4
Pt        8.38245492880241   10.84139809006405    9.41583041170588
Cl        6.61246356145532    9.69620135213736    8.50170583991284
Cl        7.16241248454451   12.77339004158448    9.35524721942770
P         9.60714303212745    8.96862948983006    9.78008931487434
P        10.19098222432571   12.04657558473658   10.07559740019669
O         7.72933892745815    7.23631235564104   10.35457130211503
O        10.82582167886449    6.63232876858982    9.33755640869253
O         8.95324267364384    5.30408069871748    9.81815124807423
O        12.51007503003714    7.83604791872726   11.58444258031206
O        13.25526449086655    8.64157397258337    9.63204584919780
O        13.37730865793786   10.78137264896440   11.97186077098745
O        13.39053858169486   12.17411383946044   10.21759666159550
C         8.23296878991846    8.67671897511449   12.16439376841420
H         7.57764692674006    9.43212247975040   11.72099445536423
H         9.03681577455785    9.15882500732013   12.71714430486408
H         7.64088031628264    8.06105774023338   12.83732074824539
C         8.81323434681832    7.82037071860117   11.04787587836564
C         9.75904685591603    6.73616340215301   11.53687501352503
H         9.22584790592179    6.09836112140307   12.24588171087754
H        10.64089590310333    7.15265660044840   12.01584367194148
C        10.13875939581092    5.87022799878401   10.32550127306595
C        11.08033133748019    4.73749546193277   10.71590124048353
H        10.57675589042372    4.07689469515500   11.41343631265085
H        11.96792755977936    5.16081564404925   11.17547517624417
H        11.35446715158028    4.17925864793995    9.82590108441013
C         6.74601063350971    5.61689224058640    8.97051196251726
H         6.92193763417455    4.88625422756999    8.18840342379156
H         6.05295263839530    6.37939010140038    8.63011794711369
H         6.33775255362279    5.12061193836141    9.84526147772883
C         8.05481517153326    6.29531597954156    9.35030257072195
C         8.71389448672303    6.98573491686453    8.15068467370350
H         8.06224320569674    7.78411296743572    7.78613239370219
H         8.87796130940805    6.24462417998193    7.36657717663000
C        10.04506334841803    7.56924431481762    8.61209228430179
C        10.86389287781792    8.08399756681177    7.43502077411565
H        11.80825818705330    8.49773269283879    7.78056292015230
H        10.29238109319143    8.85516019846202    6.92093255640009
H        11.07109889814951    7.26865715883656    6.74502403749693
C        11.24554266613326    9.50958890000187   10.39087353413233
C        11.49337894524897   10.82735264356025   10.51421170047320
C        12.37529451484694    8.55048785628783   10.63089545019588
C        14.37673920804178    7.76764713421452    9.71985320147484
H        14.87065552894107    7.88975218737392   10.68540309861789
H        15.04032465813713    8.04436321730359    8.90481239663945
H        14.04495295383598    6.73352838198458    9.61299059075406
C        12.83766017802718   11.24493740102835   11.00059081399308
C        14.68529895674181   12.62502836777346   10.59831149229015
H        14.61724191298907   13.25337521150530   11.48879875520213
H        15.06881992053038   13.19729724576650    9.75757211194135
H        15.33357272306162   11.77438736383298   10.81491767256260
C        10.92901721629871   12.99415256772683    8.66776819213757
H        11.97246114549556   13.23810857181560    8.88560555675539
C        10.85632061185703   12.05929963872134    7.45773602014289
H        11.46146056269260   11.16727997384745    7.64648271404034
H         9.80968119590374   11.74451420647805    7.32344715916982
C        11.33401057752967   12.76035457187177    6.19091994956460
H        11.24469055660541   12.08258279019365    5.34006778181716
H        12.38872118674256   13.02671861090627    6.29859865285863
C        10.51195503812757   14.02131607865268    5.94736018319731
H        10.85631930266048   14.52314033998046    5.04127904725824
H         9.46483348171583   13.74865866648721    5.80636080930984
C        10.62954646966851   14.96049803984024    7.14246677965929
H        10.04129724049429   15.86251114495250    6.96706823899124
H        11.67406012729197   15.25960178228478    7.26782136093638
C        10.13513851538839   14.27557409780042    8.41441336594114
H         9.07581897072954   14.02994391666982    8.31067810534833
H        10.24192247825481   14.95969200997731    9.25896680527990
C        10.02432318027545   13.17119601884478   11.52323688267258
H         9.29378096373797   13.91841967008633   11.18226826127358
C        11.29512885029491   13.86970598841813   11.99651355340527
H        12.00808813680340   13.12632261479766   12.35984969374865
H        11.76025451545107   14.42651529905270   11.17992167453603
C        10.94763106924992   14.81221895487331   13.14817620472251
H        11.84984668809733   15.32177770606724   13.49303314944013
H        10.24619320239497   15.57186766345409   12.79647336248552
C        10.31898407926731   14.03100623101204   14.29894201679933
H        11.04138359298505   13.30433322210863   14.67811334545264
H        10.06887289022394   14.71124874625209   15.11479219035308
C         9.06387273385374   13.29952588538425   13.83009973384355
H         8.31613046276764   14.02721947680421   13.50876071639539
H         8.63938139092293   12.72281510850859   14.65347104727569
C         9.39178041312441   12.37230192459024   12.66406932329595
H        10.08670562767633   11.59329736501719   12.99352745032519
H         8.47861889508613   11.88931346842521   12.29921600938816

