77
CSD_code = OTAGUM | q = 0 | S = 0 | Stoichiometry = C28H43FO2P2Pd | MND = 4
Pd        1.89592917903519   -0.10902866054107    4.30894221665378
P         0.98315156572395    1.02159094250292    6.03357959586322
P         2.47016851615513   -1.82742287783395    2.96524590149848
F         4.58730678471901    4.57025851381789    1.25540831159337
O         0.22487630394309   -0.10151160773826    6.93663489329107
O         1.80282327100317   -3.14949706804296    3.64232320296699
C         1.01030928994972   -1.62954164630125    5.29158012860110
C         0.30111458009326   -1.40961645067176    6.46357419716535
C        -0.31561084073305   -2.44215709848143    7.15230845531035
H        -0.86083068864961   -2.24170863288738    8.06195359924591
C        -0.21540628167847   -3.72933359457661    6.64707545397593
H        -0.69086080604975   -4.54342970588122    7.17248891876398
C         0.48475315013029   -3.98950039215258    5.47910049458822
H         0.56185873434880   -4.99226748678155    5.08742669238726
C         1.08855682561535   -2.93138214626437    4.81832175199858
C         2.78753039428797    1.42915967545131    3.31120898684790
C         4.10554301576266    1.82640211077642    3.57106618701875
H         4.69168719814637    1.31038287050537    4.32975609085121
C         4.71751799924217    2.87053956995880    2.89408646418767
H         5.73507806336242    3.16186164070906    3.10855471066206
C         3.99928286313086    3.54411275534202    1.92719203403897
C         2.69716494182003    3.19917607596187    1.62690805276847
H         2.15852903621418    3.74362214472819    0.86552217948142
C         2.11048617893105    2.15078559809948    2.31924427995533
H         1.08269560050182    1.89602091983667    2.06495045509284
C         2.17797164311698    1.69186589671782    7.31369627199138
C         2.86350793642573    2.95080397759687    6.79414615207950
H         3.75795993212156    3.15723610812434    7.38069993576978
H         2.20935995774698    3.81547725701613    6.86780071780452
H         3.15472033079336    2.82453190693382    5.75159118401671
C         1.54062962715042    1.92849976584811    8.67772226046840
H         2.31834684766120    2.07019090437602    9.42745486703838
H         0.93154028433372    1.07647797863662    8.97153593998995
H         0.91485125480329    2.81721312988114    8.67045877648889
C         3.19970955585103    0.55058283121793    7.39539417751373
H         4.04365579564720    0.82824610812141    8.02528798895511
H         3.57545915972501    0.31818191062582    6.38841225942889
H         2.74245611914512   -0.34823673522005    7.81139048226740
C        -0.47691007274188    2.12382447456382    5.62095771668903
C        -1.20761163630113    1.27355810082361    4.57385866271552
H        -2.03835243836528    1.82515284329136    4.13578717735187
H        -1.60147965006928    0.36115104236780    5.02407513574990
H        -0.50995914472897    0.99438186849203    3.77090123117051
C         0.00032991899921    3.42225282009449    4.97982549253580
H        -0.82660128151146    3.91005628365386    4.46511806552832
H         0.78986698365554    3.22329174356123    4.25557834292825
H         0.38237477793865    4.11322095530267    5.72657961937047
C        -1.39087143261404    2.39496401161312    6.81015368683007
H        -2.33082868935434    2.82162911159651    6.46167612574826
H        -0.93748975747897    3.10008404688538    7.50197233450398
H        -1.60968051075099    1.47400764487511    7.34608850941667
C         1.63874252010660   -1.88865779429618    1.28581657905639
C         2.27042991505309   -0.87246634868579    0.34074981800319
H         1.60991975947317   -0.69042277526312   -0.50620041023774
H         3.21972776825183   -1.23135850159171   -0.04767776861303
H         2.44212856414105    0.07270353029070    0.85515830428217
C         0.21487481177288   -1.44105298281854    1.64017454313061
H        -0.38427090234507   -1.30237941064898    0.74128229656606
H         0.25167587269920   -0.48772906910271    2.18731086980881
H        -0.27787853381689   -2.18330949581752    2.26961995707981
C         1.61646669166232   -3.28196887121310    0.66856976622180
H         0.91163199071025   -3.30521312119598   -0.16186430130087
H         1.30781135849957   -4.02363401456500    1.40202367223142
H         2.59579686679347   -3.55767422391789    0.28580849030774
C         4.27509100075990   -2.33540824801009    3.00406615527075
C         4.50912200832295   -3.78435007454074    2.59329168581774
H         5.52179306384607   -4.08326665481531    2.86197732014306
H         4.39368155669455   -3.91308828843440    1.52024138877017
H         3.81008219075367   -4.44639065347607    3.09960780918212
C         4.60759295597581   -2.14552377998319    4.48951694666235
H         5.66878131689446   -2.30704511036469    4.67440822092925
H         4.04172928468657   -2.84713991499181    5.10475886623943
H         4.34976334177208   -1.12199793381349    4.79789428196562
C         5.11658039981949   -1.37764805392600    2.16773853391849
H         6.16752895131290   -1.47011677452947    2.43912137807460
H         4.80473515247786   -0.34726598894677    2.33719873650987
H         5.02565170743980   -1.59695688186181    1.10719049082306

