74
CSD_code = OTAHUN | q = 0 | S = 0 | Stoichiometry = C37H31AgO3P2 | MND = 4
Ag        5.46018702142328    4.94220409223972    4.93261051817213
P         3.53813574169022    6.17867723078123    3.74098753301780
C         2.67042824130967    7.38148174426728    4.80655399152349
C         3.20910340588816    7.64275732512757    6.06194456261783
H         4.09705063237348    7.10999338538754    6.38461913181539
C         2.61168059249184    8.57563050818906    6.89175158750250
H         3.03189199357895    8.77569768778485    7.86617627912355
C         1.47637013279365    9.24861704286560    6.47285641706093
H         1.00852656522812    9.97581881860945    7.12020804466739
C         0.93646198126568    8.98883417473493    5.22232595247500
H         0.04953364094498    9.51353486607008    4.89747158660110
C         1.53001866543334    8.06120460322011    4.38750762130610
H         1.10532325204338    7.85761920387317    3.41485863875082
C         4.07561890089633    7.29350446774012    2.39882298697465
C         5.39224982758518    7.74288168929757    2.45229410371757
H         6.04632526261433    7.39564189688189    3.24424060072830
C         5.86555200309000    8.62043770750400    1.49355579038427
H         6.88873018932466    8.96250972240768    1.53901695363605
C         5.03022150664898    9.05284957708170    0.47664256438768
H         5.39981154958127    9.73366866278561   -0.27626715772684
C         3.71805071778532    8.61066553648116    0.42364593197598
H         3.06503776029213    8.94911247498476   -0.36807814128529
C         3.23655115922645    7.73737959496125    1.38167666491739
H         2.21311826104597    7.39414305819773    1.32757828368384
C         2.16696784688742    5.24638398765404    2.99502047095283
C         2.28946557364523    4.73537100846585    1.70471817272534
H         3.15654169823164    4.98760443799377    1.11079491299415
C         1.30831361980751    3.90990706461375    1.18783337405926
H         1.40962753894949    3.52325444526569    0.18435562946160
C         0.20446623859197    3.57403440623869    1.95545204999249
H        -0.56059970197531    2.92887600729106    1.54931719591604
C         0.08847274300119    4.06060908503361    3.24803203254322
H        -0.76553111708727    3.79190289017600    3.85270415931354
C         1.06763175071256    4.88514786530401    3.77050333432074
H         0.98580689917786    5.25415164004224    4.78399058737662
P         5.55894375949754    2.68048568012313    3.84809154280283
C         5.37806469290206    3.12565456483870    2.08647164750566
C         5.98360185621384    4.32149548091783    1.70556426790500
H         6.51397487398299    4.90895037878771    2.45133377517485
C         5.91881302917030    4.74913716694604    0.39286856322854
H         6.37989144483821    5.68292384489293    0.10703569301474
C         5.25249003317522    3.98164010740271   -0.55043974836995
H         5.19400674119890    4.31640643753620   -1.57575739493260
C         4.66108119276063    2.78569869504423   -0.17787733738755
H         4.14827001041504    2.18428560055298   -0.91479076096767
C         4.72090251915002    2.35409963457651    1.13603932630797
H         4.24612254837417    1.42550636003526    1.42002918888479
C         7.17880464305363    1.84852766077170    3.75718117320568
C         8.21056449236175    2.33129293138078    4.55363638250782
H         8.02484987476657    3.17162429588032    5.21270138465145
C         9.46402762713030    1.74770566945838    4.49185663877532
H        10.26498313672815    2.12497913270726    5.10983412651526
C         9.68915503784373    0.68419067789858    3.63422982266449
H        10.66653135130747    0.22709191558705    3.58567034856961
C         8.66404611585577    0.20760218860619    2.83035524411239
H         8.84534970373379   -0.61750919753792    2.15679206222133
C         7.41144758623236    0.78817746882445    2.88495540305648
H         6.61149331409096    0.42428457782372    2.25484203408395
C         4.37270368197260    1.31690749495862    4.04555591077826
C         3.03404696981172    1.59461486548770    3.77216119478396
H         2.76303815847223    2.57274148862237    3.39819917948770
C         2.06718977197529    0.62903444016773    3.97019822089502
H         1.03447186385472    0.85103985672354    3.74402810931621
C         2.42385304834711   -0.61670548017723    4.46384529761138
H         1.66885017715762   -1.37288310796095    4.62024617287641
C         3.74783031120110   -0.88651035819939    4.76811982069831
H         4.02405608612008   -1.85189523474539    5.16659257995692
C         4.72164556837835    0.07644331081025    4.56824099007175
H         5.75259926581695   -0.13486211329808    4.81567293887783
C         7.31600754714084    6.47077359249741    6.06249085381411
O         6.38803463965734    6.04351650147302    6.77745078835940
O         7.46049684332700    6.24627347304176    4.85622889456665
O         8.24530334611412    7.25834978270383    6.66464452931347
H         8.00861504232675    7.34110230486966    7.59777876879492

