101
CSD_code = OTAMUT | q = 0 | S = 0 | Stoichiometry = C42H52N2NiO2S2 | MND = 6
Ni        2.62612744879082    0.71761225010556    6.31724551116024
S         1.01034203295995   -0.54133270986787    7.53542057598522
S         3.43188376547719    1.62899343858012    8.76588968687558
O         2.56821260332148   -0.40944319062206    4.39125799526099
O         3.72656127028138    2.05689232985827    5.34162230347916
N         4.10635195953890   -0.31261640300527    6.56551929011699
N         1.24003271193501    1.78812804909877    5.85979498280148
C         1.52519696465850    2.47649795590578    4.71249600804766
C         4.68921734065739   -0.61524762385962    5.37963812359618
C         3.37985733493436    3.40722305332945    3.39052961659128
C         6.58042154293754   -1.19688669887637    3.99743661868467
C         0.04779378356247    1.81020763630794    6.51386013521127
C         3.78700318946723   -0.69454581774766    4.23273148487224
C         4.43984212279324    0.15575615950853    8.90838494259109
C         5.69085842884866   -1.35646485409680    2.90758569034159
H         6.11752624076755   -1.64816715351994    1.96296736653496
C         1.04128257940226    3.63004683690225    2.66497386237489
C         2.42134125074020    3.87251621158034    2.52140068450408
H         2.73916909414901    4.43550451915424    1.66049685811106
C         5.40233865397294   -1.82866262004435    7.95696779277051
H         5.52614629411828   -2.49632572139626    7.11756861404456
C         8.06501236944778   -1.41462529686113    3.76095682696719
C         4.86357308314275    3.69060115417673    3.22406757432052
C         4.98673165865715   -0.16819974303039   10.13545950484269
H         4.81791928557772    0.48892530255205   10.97534821036326
C         6.06412360119876   -0.84793716393540    5.21945743180719
H         6.70070615644400   -0.68936219154409    6.07496096177716
C         1.46216480870550   -0.32516754958258    9.30170581384846
H         0.57636691066395   -0.57706879677373    9.88668049342117
H         2.23257810014491   -1.07618200457915    9.48271890030625
C         5.16699194957665    4.58120788191866    2.01589987000607
H         4.66258035348678    5.54153525543853    2.09832015506155
H         4.87065360899709    4.09885083816952    1.08684472883962
H         6.23815628789422    4.76745164250712    1.96873878767854
C         5.92506037147907   -2.15492678036829    9.18871972160573
H         6.48486299890000   -3.07169932558021    9.30120067765315
C        -0.89313097077048    2.85434677576635    6.45885131525582
H        -0.66239389017596    3.73925577374925    5.88675293552359
C         4.66227739722809   -0.64642029951350    7.77098734726371
C         2.93875222412157    2.62105764794867    4.49216431894291
C         5.73523606590421   -1.32268954001193   10.28392045281729
H         6.15697795022101   -1.57601840288968   11.24394782899114
C        -1.43201724055773    0.64387740581798    8.06362478623909
H        -1.62910116289698   -0.21621014872845    8.68628436778966
C         0.10006045064680    4.11325554146133    1.57355933623917
C        -2.07065850972517    2.77366269445795    7.17065349303108
H        -2.77637758647025    3.58969029080965    7.11703257968082
C         4.13736713547953   -1.74926039503417    0.52270322285817
H         3.41518007282472   -1.85526312256141   -0.28437224822544
H         4.61759891532097   -2.71419355681075    0.67120161731686
H         4.88313910526516   -1.02150266060670    0.20986683668485
C         2.34638451692413   -2.33905930736787    2.14421418855918
H         1.77664032072598   -2.01506359639259    3.00943648914970
H         2.81706865901670   -3.29430097346353    2.37037907824659
H         1.66368760755570   -2.47758484609634    1.30836665380197
C         3.41070925043894   -1.29001729874756    1.79037992060283
C         8.89970090837071   -1.19789453836798    5.02626222568962
H         9.95121972404020   -1.36330912887851    4.79988678457297
H         8.61163444639626   -1.89376485526291    5.81099963676553
H         8.79097732630156   -0.18099446207960    5.39522681642772
C        -2.36078828067672    1.66717029646246    7.95795013805838
H        -3.29246075127778    1.60953239533738    8.49835197242839
C         0.22146991267331    5.63779258400778    1.43372231934362
H        -0.46438253150785    5.99862254370739    0.66987307950993
H         1.22792809956748    5.93384822502256    1.15242536003397
H        -0.02520326687800    6.12268905880620    2.37606082608966
C         4.34381259130223   -1.13636380693190    2.98130867747745
C        -0.23934485714856    0.73478636921675    7.37889726993008
C         0.59951314242937    2.95524489279905    3.78272704169312
H        -0.44277584924304    2.72314522046852    3.92306017643455
C         5.62707594233451    2.37104872473648    3.05928831977358
H         5.45827063893526    1.72760931664677    3.91656591643852
H         6.69406367157747    2.56762435210495    2.97331980077961
H         5.29931072251007    1.84645786602950    2.16478034943583
C         0.48653186173025    3.43516566693574    0.25135957065102
H        -0.19111533554049    3.74459407355787   -0.54187309109521
H         0.42877235194412    2.35426220712556    0.35720748064129
H         1.49926362141396    3.69263159849040   -0.04512932389097
C         5.35584947534348    4.40580783536673    4.49066704914823
H         5.19458138355890    3.77508106977324    5.36008894554408
H         4.81737523720273    5.34125980203859    4.63149735270656
H         6.41865151280171    4.62505719951730    4.41042893771575
C         1.94761248983360    1.05659118294664    9.68627923126002
H         2.18940749064867    1.06784585273637   10.75024495280166
H         1.18809303125642    1.81271893214485    9.48385974025747
C         8.29211339974236   -2.85537390783157    3.27963875797774
H         7.77362560963033   -3.05015555849813    2.34520157156205
H         7.93024818225469   -3.56189019746060    4.02385271669075
H         9.35392729714622   -3.03341552962196    3.12245409398927
C         2.72683708484872    0.05205975073446    1.49339340987707
H         2.18212954546114    0.40259395094195    2.36432033225601
H         2.02962084730443   -0.06199246446751    0.66552275899097
H         3.46338733747683    0.80558989675987    1.22288810733422
C        -1.36527477981765    3.77999603287162    1.86809190576068
H        -1.99072528824375    4.14542637132226    1.05584625895447
H        -1.69868576337508    4.25560278766450    2.78774059955919
H        -1.51295766589018    2.70580774499618    1.94820953632437
C         8.55369783704176   -0.42567286707116    2.69324695417749
H         8.03895519465710   -0.57240578276689    1.74815279663174
H         9.62085122086508   -0.55448832244838    2.52406715066976
H         8.37451676227819    0.59490676882085    3.02291316940881

