96
CSD_code = OTATOU | q = 0 | S = 0 | Stoichiometry = C44H45N2O3PRu | MND = 6
Ru       -2.18886812729064    7.17672607859783   12.79633169844098
P        -3.48126890020946    6.30662145348014   14.57068169349859
O        -0.52868599158861    7.27309379781573   14.00807860512862
O        -2.77151107282659    9.04266463402206   13.66765441943235
O        -4.29115492586197    7.43230799234943   10.69963353655760
N        -1.38419618540611    5.47070572777991   11.98249660123582
N        -0.82339576198873    8.25316286846616   11.31191447998225
H        -1.35641439123373    8.26076202325370   10.43628443428687
C        -0.82403388762942    5.92697900653540    9.70909959894917
C        -1.70860421181991    5.35809678476087   10.61606688163141
C        -2.88258944604401    4.72732829182198   10.16398550769672
H        -3.52941959125161    4.24939042550573   10.88351500937478
C        -3.18682745483545    4.72137099370630    8.83301678403745
H        -4.08534960627672    4.23459315955111    8.48363708646432
C        -2.34764703594892    5.35065287671622    7.88960063419072
C        -2.66207757748202    5.38494976676060    6.51580444260479
H        -3.57766053958809    4.91665414368701    6.18426025755976
C        -1.83197124754187    6.00154255653606    5.62200356563551
H        -2.08148665124058    6.02507166523049    4.57156411834634
C        -0.64759752936739    6.61292115574192    6.06232512671354
H        -0.00401206055642    7.10034229646782    5.34483319169127
C        -0.30958055885498    6.59496498275000    7.38590878919889
H         0.60221608756680    7.06380131107824    7.72775326485850
C        -1.14468290938842    5.96257088206879    8.33279356067920
C         0.44346658100362    6.47520536334502   10.25763776165659
C         0.41175987951641    7.58240115128937   11.09339427405614
C         1.59240165632989    7.99368785102778   11.74373285050352
H         1.57389343038216    8.83916637463913   12.41111131189523
C         2.76081814916405    7.30900182151813   11.57116974950065
H         3.65204452745737    7.62338143254332   12.09394346122590
C         2.82927478500803    6.18469960074236   10.72753280747444
C         4.02473677129947    5.45964368667386   10.54779348875241
H         4.91382292937421    5.79822079325492   11.06010656789865
C         4.05743822854727    4.35157197987616    9.74994855619126
H         4.97539731074887    3.79829427824036    9.61741339710139
C         2.89067667696008    3.92010732908954    9.10012059394499
H         2.92608389265946    3.03799370241048    8.47752519284254
C         1.71674078504192    4.60237853382908    9.25156859279880
H         0.82318085802014    4.25997628990524    8.75058184368092
C         1.65095182574778    5.75832901596165   10.06154219976285
C        -0.30996648104307    4.85850503668365   12.38558781152541
H         0.07024092131085    4.05047672298079   11.75340824570058
C         0.46893566339207    5.14287674115286   13.53437711652927
C         1.50503666394530    4.25010867280490   13.87109707085873
H         1.58292066026507    3.32862046042385   13.30926098809532
C         2.39777893364627    4.52243404859250   14.87044448907539
H         3.18099405122020    3.82141551830819   15.11514683856712
C         2.29737577479681    5.73386457713157   15.56704371077385
H         3.00851743187037    5.95720078010986   16.35021216326103
C         1.31743279742229    6.63417370908266   15.26248841571585
H         1.23784457706030    7.57356473439238   15.79073133604759
C         0.35017755382643    6.38483348498280   14.24658294470328
C        -0.72960822680274    9.63287947849339   11.81856818469116
H        -0.39393648647546    9.57917320149412   12.86283227916253
H        -0.00268962970746   10.20466195209951   11.22369664867604
C        -2.06085299559634   10.32599142846088   11.79358190021689
C        -2.34461605041160   11.31167956454634   10.86604911047301
H        -1.62093403829834   11.53376683614281   10.09119466251094
C        -3.52510894101107   12.03044126759808   10.93105146706858
H        -3.73947064891560   12.79329242015352   10.19799082442599
C        -4.41203326365379   11.77846602966558   11.96649758494511
H        -5.32005896446721   12.35982947529622   12.04731392375030
C        -4.15623757735966   10.79031881786292   12.89118675965653
H        -4.84515873781289   10.60495894447824   13.70138367873589
C        -2.99356764204876    9.99872740512010   12.80913510582396
C        -2.42651138450357    6.20149666064361   16.11774013438004
H        -1.48268629128510    5.79145090909123   15.73601487215523
C        -2.14893852138471    7.61719868850592   16.62123288403127
H        -2.99263340486919    8.00203477426791   17.19083811879197
H        -1.95907155835494    8.28054774570901   15.77720327294981
H        -1.27357242779756    7.61845915234979   17.26909893999237
C        -2.86554295242826    5.28971358171599   17.26297551646059
H        -2.08142500303591    5.29590534581479   18.01995828737113
H        -3.00405613473936    4.26132139569527   16.94152095936772
H        -3.77994027130464    5.63113613574614   17.73801436620589
C        -4.17604644992845    4.57617024862733   14.43637793016140
H        -4.63133375983360    4.33299367777098   15.40184103569756
C        -3.04754041677185    3.58831721352887   14.15172018207143
H        -3.41643027660237    2.56503143184807   14.21825131602036
H        -2.22195690837709    3.70045267516794   14.85104236914159
H        -2.66182842564059    3.75060043244260   13.14859459039449
C        -5.23387297850238    4.48592117828703   13.33897203010248
H        -4.92688939303113    5.07343978379810   12.47382144556760
H        -6.19737025617997    4.85275658218183   13.68170634508101
H        -5.36608483234908    3.44963279838596   13.02953437432955
C        -4.93350276179975    7.38485381158333   15.05208676780701
H        -4.43898626996182    8.29081221388680   15.42056221551096
C        -5.77365734466143    7.80125123129531   13.84715227459298
H        -6.34359175631651    6.97365011466492   13.43689301801391
H        -5.13485062654726    8.20897590962053   13.06930145687628
H        -6.47824737470134    8.57585188710717   14.14747646010633
C        -5.84038620533372    6.82270397271166   16.14374073463159
H        -6.63987394951105    7.53656607413381   16.33944510230346
H        -5.30842485371343    6.66398779620563   17.07578949626204
H        -6.30113820373393    5.88635825500349   15.83927023171363
C        -3.55359306254203    7.27911293512126   11.57529407343959

