103
CSD_code = OTAWAI | q = 1 | S = 0 | Stoichiometry = C50H44Cl2N4P2Rh(1+) | MND = 6
Rh       -0.69082270577921    1.64837680202481    3.73924323587000
P         1.56076218857238    1.51780611316648    4.36508248466379
Cl        0.01592519504564    0.12989668070409    2.13824263816699
N         0.01411792777343    3.00954380283053    1.21560165393555
H         0.31768732865562    2.05106249343238    1.02178796154571
N        -0.33921290810737    3.18387123459669    2.47800062558069
C        -0.01527696491616    3.91093826666255    0.15157343715850
C         0.90822843628877    3.71737047057212   -0.87531948664219
H         1.62508243053968    2.91425915802301   -0.79429746734044
C         0.90022736785369    4.54808315406441   -1.97787652201454
H         1.62044297186462    4.39604073540372   -2.76662930448861
C        -0.03048984672602    5.57120263432867   -2.07470246980793
H        -0.03435680913161    6.22019990963942   -2.93591125758018
C        -0.96571109360276    5.74632297110121   -1.06914523872316
H        -1.70953437282327    6.52383903484156   -1.15066875306936
C        -0.96587462751395    4.92327616362686    0.04230759702841
H        -1.73260577208779    5.04034984160770    0.79277775817268
C        -0.51520883755105    4.34342921210203    3.05438494747488
H        -0.35977179501698    5.27335537633662    2.52434099663529
C         2.58473802434851    2.28838428248461    3.07750025724450
C         3.23754381656564    1.49598871644690    2.13736648614676
H         3.19616680099452    0.41964415317244    2.22143001979207
C         3.93417488464012    2.08611960182080    1.09740741602516
H         4.44516276126253    1.46540061860425    0.37710382535669
C         3.97459979240184    3.46573527948258    0.97835219611198
H         4.51862170021145    3.92438178359343    0.16714097031186
C         3.31008619080371    4.25948444060893    1.90014674487773
H         3.33466964561516    5.33480159857526    1.80515460297041
C         2.61283594786721    3.67612507933824    2.94140207097688
H         2.08401265143807    4.29812157623855    3.65174448533238
C         1.97971802436975    2.32547122202646    5.94488120085629
C         2.95729369258031    3.29767133018108    6.11652949000328
H         3.54243007194842    3.64517206479404    5.27775279760008
C         3.19965243664358    3.81178578748932    7.37953448615231
H         3.96178651898563    4.56565991342558    7.50864400991219
C         2.47853977234877    3.36049808273514    8.47205814912428
H         2.66966576095840    3.77060181735838    9.45156030965223
C         1.52377818832129    2.36906941977631    8.30916126093912
H         0.97478312610528    1.99935901971607    9.16168522560472
C         1.27881350463065    1.84974160511048    7.05296797854323
H         0.55419116276305    1.05708544040730    6.91924263916836
C         2.35393206337291   -0.09267726076330    4.64868430087410
C         1.67004737750690   -1.29959395306884    4.64912427014761
H         0.61048019414628   -1.32804585468788    4.44964272973404
C         2.35262664109709   -2.47657174499485    4.90787363949400
H         1.81825927779273   -3.41434150411904    4.90500726455702
C         3.71093195558642   -2.45160399531149    5.16978673819784
H         4.23994871829714   -3.37079743954725    5.36969548346458
C         4.39475539742451   -1.24447717548465    5.17960867326771
H         5.45371484318755   -1.22278949754188    5.38808351310744
C         3.72163089731785   -0.06674690282837    4.92495417512133
H         4.25070593057025    0.87725384350916    4.93445970636928
P        -2.94233516096474    1.51765645504527    3.11316895735046
Cl       -1.39750116443933    0.13023914906366    5.34013609781741
N        -1.39649051293699    3.00949133925739    6.26251260022848
H        -1.69971335162365    2.05089342919412    6.45637526916293
N        -1.04300088179123    3.18384378418494    5.00018599399340
C        -1.36681180743847    3.91063368677236    7.32672733727156
C        -2.29013933185134    3.71679368927782    8.35373461555234
H        -3.00711667023627    2.91380834234886    8.27253238162091
C        -2.28184389864952    4.54711881856948    9.45657746186111
H        -3.00192617686440    4.39488169306355   10.24541433531181
C        -1.35093860702719    5.57005580120369    9.55360838700893
H        -1.34677028798388    6.21868673109229   10.41509122366840
C        -0.41595867159119    5.74548791342741    8.54788145050318
H         0.32794981929519    6.52291044790122    8.62951225294505
C        -0.41615992578264    4.92290037246950    7.43608053435703
H         0.35035310912488    5.04024785985391    6.68543064448698
C        -0.86725693426572    4.34342579272841    4.42378845188693
H        -1.02283669593729    5.27331817662393    4.95384616612697
C        -3.96662967256526    2.28808593714265    4.40057009135105
C        -4.61889448207496    1.49548663421423    5.34091606192757
H        -4.57707947202009    0.41915336159238    5.25693136079397
C        -5.31545401229017    2.08540421270622    6.38102931393922
H        -5.82589492175354    1.46453420676738    7.10159428195415
C        -5.35636763698035    3.46501060545354    6.50001258751148
H        -5.90023709334887    3.92348712132923    7.31142424341108
C        -4.69240686691946    4.25896511701427    5.57800192679401
H        -4.71734003294244    5.33426848433608    5.67297663373397
C        -3.99519707317866    3.67581710082215    4.53660843777669
H        -3.46668126236867    4.29792976633005    3.82614446735205
C        -3.36070369977661    2.32517288201053    1.53313924677830
C        -4.33807155888931    3.29743638246181    1.36066715469909
H        -4.92382178234215    3.64510755899809    2.19895547057566
C        -4.57967212335347    3.81115961210391    0.09733204376861
H        -5.34172977159460    4.56498923008156   -0.03249649724857
C        -3.85793265525797    3.35955537306025   -0.99464138235601
H        -4.04827485453272    3.76957859850227   -1.97433377164876
C        -2.90330095532212    2.36813904724825   -0.83091641607408
H        -2.35362524085534    1.99833649081738   -1.68296762484137
C        -2.65923243469558    1.84905994648451    0.42555274075363
H        -1.93482932253133    1.05631399823998    0.55995534963493
C        -3.73580289943112   -0.09265684567990    2.82947563955785
C        -3.05251434043861   -1.29990211096542    2.83036277974678
H        -1.99309791942641   -1.32870061492500    3.03060799260259
C        -3.73553484351734   -2.47670528179385    2.57194610873005
H        -3.20170402900219   -3.41477433912765    2.57592816328465
C        -5.09362293153783   -2.45121891528604    2.30897561361324
H        -5.62299604403353   -3.37030303114151    2.10949219623894
C        -5.77681491287015   -1.24375238055118    2.29770098745551
H        -6.83562177835489   -1.22166913780380    2.08846820569606
C        -5.10327887313362   -0.06620662407354    2.55212285833985
H        -5.63184323710147    0.87806872786925    2.54157961939522

