39
CSD_code = OTEFEZ | q = 0 | S = 0 | Stoichiometry = C16H18Br2N2Zn | MND = 4
Zn        6.93363270639528    1.90547603245011    1.34401125859192
Br        7.49268061288707   -0.32419499205094    1.86129636108340
N         6.77806591781355    1.90547225344585   -0.80004148415165
C         5.50016975638696    1.90545329264729   -1.19823625039905
C         5.15948395612070    1.90542513540402   -2.55213236943545
C         6.16798604287627    1.90541594747870   -3.49850902511814
C         7.48672547462378    1.90543612907458   -3.06910289769651
C         7.73988763823308    1.90546432043753   -1.70535972421399
C         4.47487760283036    1.90546067346679   -0.17581218991096
N         4.78366568562191    1.90548081298704    1.06505215845345
C         3.86915813098670    1.90548520406714    2.10228973113046
C         2.47768078183553    1.90548814129659    1.95446415362558
C         1.65603691018754    1.90548765713619    3.06157034470203
C         2.17025771003060    1.90548392779113    4.35722324303366
C         3.55879498285953    1.90548464702437    4.49662164716747
C         4.38904372100717    1.90548600852219    3.40030602520007
C         1.29373918262170    1.90547691425470    5.59452722397417
C        -0.20074296888479    1.90547852759354    5.26237914403682
C         1.60412182874727    0.64843025174413    6.42066700218272
H         4.12095987723105    1.90541042751500   -2.84546435390424
H         5.93212032580824    1.90539245959459   -4.55180057110332
H         8.30431684700134    1.90542958977203   -3.77121282700808
H         8.75282269331661    1.90548070469406   -1.32591151159214
H         3.44698000010508    1.90544583722584   -0.53555090119561
H         2.02448986242665    1.90549177229110    0.97489024826647
H         0.59085014922924    1.90548981047732    2.89867633505119
H         4.00549038154409    1.90548366669100    5.47813646617568
H         5.46280678366260    1.90548584613402    3.54262804166138
H        -0.47813320838678    1.01824350112288    4.69783223105180
H        -0.77453162866800    1.90547262385702    6.18637793013370
H         0.97340554892537    0.62288581321532    7.30610146083418
H         1.41070322483769   -0.24675321433532    5.83344039507429
H         2.64122065578632    0.62769293139215    6.74199951858787
Br        7.49272088535113    4.13513186536120    1.86130845482811
C         1.60412074946807    3.16251222121562    6.42068442650724
H        -0.47813375079984    2.79272008275757    4.69784290057372
H         0.97340452097070    3.18804318473974    7.30611927303887
H         1.41070092616299    4.05770382128099    5.83347070772366
H         2.64121948284744    3.18324617022668    6.74201742303906

