48
CSD_code = OTEVAL | q = 0 | S = 0 | Stoichiometry = C22H15N6O4Re | MND = 6
Re        4.83060271709227    1.56191242700227    1.94930503988364
N         6.27864424722804    3.14263205067672    1.82053404138545
C         6.12020549421498    4.12773390345856    2.72372327911817
C         7.10525613654984    5.09584272237881    2.91437370691743
H         6.97410769056545    5.87436317774584    3.64640373262852
C         8.26945201626153    5.04098097510152    2.17252774720961
H         9.04717129793264    5.77412215801727    2.32122776280927
C         8.41522783276010    4.02887623408088    1.23623664088711
H         9.30309565549969    3.94646763966418    0.63085511154626
C         7.39494303184160    3.10567754707351    1.09915593484570
H         7.47615239694303    2.30042134153938    0.37974038609263
N         3.98602959249342    3.13974687144153    3.13584694636569
C         4.84399489773880    4.12600099791091    3.45609073822728
C         4.50984006923032    5.09240897583750    4.40385728709751
H         5.20726616195021    5.87084850908046    4.66220597758966
C         3.28133019557172    5.03572139662931    5.03330464761667
H         3.01586446800789    5.76775204888864    5.78035202712210
C         2.40079053220792    4.02314541621612    4.68459576634518
H         1.42944688030989    3.93978729150047    5.14402000359852
C         2.79955769303271    3.10076837813688    3.73469829240489
H         2.13880790791396    2.29486308431270    3.44058646995347
C         3.50294863538958    0.19793165253142    2.39195690578863
O         2.72663163904242   -0.57905484875960    2.71220253136431
C         3.89694249532073    2.11453164085586    0.32713759111700
O         3.35444891844227    2.48308950872010   -0.61178692575417
C         5.88906139106903    0.20276846613846    1.02628373749208
O         6.56459221730390   -0.56910934522211    0.51988480371553
N         6.16963082667427    0.02623992387890    4.23663045485967
N         5.86027239910587    1.19774271821581    3.73667628248733
N         6.29453581742633    2.16553733042909    4.51040244452186
N         6.90038332363596    1.64910023915057    5.53813346888283
C         6.82313149655765    0.31676399830099    5.36902830603385
C         7.36958960507742   -0.66688887534719    6.27576667683687
C         7.22665311484674   -2.02471873281771    5.99174810628181
H         6.70364690662566   -2.31369962730180    5.09252125644696
C         7.74612499649922   -2.97302506403128    6.84668503011236
H         7.62339117415715   -4.01724857893094    6.60449507976412
C         8.42163245067955   -2.58511500305883    8.00583277768813
C         8.55894786257082   -1.22136419028424    8.28137292842926
H         9.08336705392916   -0.93466592722328    9.18111691615123
C         8.04116986382003   -0.27006660357135    7.43107850733043
H         8.14518935452738    0.78380290572732    7.64046289534673
C         9.00798138720556   -3.54730639835214    8.96813388269674
O         9.60488157780980   -3.17478278985722    9.95588749441973
C         8.83227402355291   -5.01790960412336    8.66758260671551
H         9.29641633869814   -5.60158760264047    9.45863349354202
H         9.30188836893744   -5.26366438207382    7.71756094977928
H         7.77477984575050   -5.26587395704856    8.60963025829195

