51
CSD_code = OTEVOZ | q = 0 | S = 0 | Stoichiometry = C24H15N6O5Re | MND = 6
Re        6.91540370337029    2.66103054637453    6.38162710755380
C         6.42432745192027    1.23166093104228    7.61424465000660
O         6.06903653432683    0.42658784282649    8.34697262472271
C         7.28138182165991    1.43518120960153    4.90909109740106
O         7.47340828704866    0.74558807798471    4.01550993026593
C         8.76264241211198    2.64111420678322    7.02352327007683
O         9.84381274328069    2.69447292681707    7.38677166997625
N         7.12513443180853    4.46245399561332    5.15543054923547
C         5.93945994614025    5.08168896634149    4.96734592609973
C         5.83914119881939    6.42720461559986    4.55860584078662
C         7.03527680378606    7.12288858671496    4.32272500298353
H         6.99847739813440    8.16110536400239    4.02899820896215
C         8.23144564574419    6.46598279136436    4.48393408002508
H         9.17098768935140    6.96627471554509    4.31447063408346
C         8.23183563749175    5.13639541511320    4.90783064318702
H         9.16375349449586    4.61125325575230    5.06861665229840
C         4.55024160360491    7.02117180864403    4.43702672541349
H         4.49732811466674    8.06016393800884    4.14904042047650
N         4.89656029383892    3.06942619743744    5.70455333733485
C         4.74884528618707    4.33400386596234    5.25029889920662
C         3.48911367707164    4.94527125258757    5.08747483981950
C         2.35247900159527    4.17390537517005    5.37586364922829
H         1.37122002934740    4.61321079298602    5.27679470983664
C         2.51896760012915    2.87452972323673    5.79047915248965
H         1.67164467029103    2.24803738151419    6.01903194974436
C         3.80860578968603    2.36563377003526    5.95215307759139
H         3.95636834316887    1.35423082981705    6.30751320226864
C         3.42505471517356    6.30977540165213    4.68517090925298
H         2.45090601188713    6.76687844635011    4.59936047146178
N         5.20378771799584    4.62715835073522    7.90190695669655
N         6.43883791578980    4.20484525869703    7.71728164576304
N         7.29802858241008    5.17030046266145    7.93688838168386
N         6.65063528718238    6.24850206842604    8.26097102301866
C         5.34737026653539    5.91441998832817    8.23653012085891
C         4.24483231353060    6.83076032262186    8.40529125576799
C         2.93284390847157    6.36477696594176    8.31273043922056
H         2.76452960041955    5.30613487852934    8.17898174071363
C         1.87608155169461    7.24498845777352    8.39578383557064
H         0.85941461176398    6.89015049652762    8.32647797607924
C         2.11666910774205    8.60733688884176    8.57084225504286
C         3.42903050765333    9.07059371101520    8.67265294458572
H         3.59188435176732   10.12831703583382    8.81493455406641
C         4.48639596049081    8.19142011575874    8.59084208853708
H         5.50785183813942    8.53193434881859    8.66488554621560
C         1.01738627683636    9.59150781954714    8.65441440640020
O         1.17077140644828   10.78494471301906    8.75592793281569
O        -0.19936158190660    9.01797316401459    8.60009666505632
C        -1.30074745241022    9.90682466947144    8.68981277641529
H        -1.25475273961882   10.47598776804750    9.62060329255104
H        -2.19459547507256    9.28872472037784    8.66345576805633
H        -1.29325429199185   10.60777556414831    7.85212916308432

