82
CSD_code = OTIDOL | q = 0 | S = 0 | Stoichiometry = C31H24B2F15N9Zr | MND = 6
Zr       -0.56568393973093   16.08354134335288    4.70148548921219
B        -3.84884581839418   15.06047026838642    3.96554636088252
N        -2.62539580639170   17.12592583510479    4.68035849246561
N        -3.78987113665844   16.52650052450289    4.40178731710661
C        -4.81380680025953   17.34449213772682    4.67898709422458
C        -4.30002646208609   18.52950073364120    5.16516957578622
C        -2.92067479014495   18.33680735953220    5.15285442124244
N        -1.91610396241187   14.24569704235755    5.40024466423241
N        -3.22296379206554   14.21120415003457    5.08256130958545
C        -3.85935905470798   13.29070448383217    5.81979585410613
C        -2.94177733981868   12.69341942353494    6.65643308697930
C        -1.73997585458735   13.32672945761749    6.35150785041027
N        -1.66839040747685   15.07819497172963    2.68415187979285
N        -2.99763393779393   14.87589775513783    2.71167181921111
C        -3.42798965836831   14.41453863632700    1.52892138793797
C        -2.34462344958677   14.30706690120177    0.68504250586590
C        -1.26701312344165   14.73095286110157    1.45819276721582
N         0.10869722033138   17.89768275630690    3.81129050959374
C        -0.68613370047723   18.27366985070715    2.64383706779715
C         0.55206604607581   19.12123118026642    4.45449699131915
N        -0.57568176032034   16.88172656627659    6.57196275783952
C         0.59015499579877   17.36946076284019    7.28738998530129
C        -1.61891795911606   16.59640576323201    7.53820933819334
N         0.75333142648205   14.39487287391099    4.18635611877429
B         2.27888567120360   14.73268315564753    4.29272353500757
F         0.82112853031099   14.73968420960368    6.68679118958178
F         1.64774466176257   13.94072879412885    9.13378397349116
F         4.17599621854724   12.89222036983232    9.45828905196907
F         5.80974878125377   12.67021975898070    7.28410330445009
F         4.99110106213073   13.47651184500446    4.86943423557295
F         4.01805898999748   16.54377072349730    5.98248158904124
F         4.92396436849196   18.92877871938082    5.10674575517291
F         4.13258599597711   19.84674952340711    2.63974012447018
F         2.16565628918899   18.53479512952524    1.26577689724109
F         1.08561714255730   16.22591497131193    2.30107937048751
F         1.85860140349379   12.00617679175805    3.59926744838355
F         3.03339176586746   10.58188158659410    1.65833125831948
F         4.90779803327276   11.74880377650990    0.02929238422484
F         5.56376361060001   14.37333949452749    0.42373867126653
F         4.41371001291444   15.78901763060147    2.35846193298457
C         2.87532012260555   14.14910178439843    5.69532631648349
C         2.08677356634096   14.23029777918218    6.83006792239491
C         2.48459890402302   13.82659409944943    8.09477492881424
C         3.75910648864859   13.29668286232518    8.25781876390222
C         4.58830266464801   13.18784363403604    7.14578895749353
C         4.14278845941655   13.61016669830379    5.89558921318479
C         2.47652218230098   16.35266063425532    4.19736977229944
C         3.47124711908886   17.05845501378971    4.85674313174149
C         3.98539227746259   18.27032961894044    4.40187130249385
C         3.55812600536135   18.76070501321240    3.17002217333309
C         2.54850401961158   18.10665187408536    2.48952579154228
C         1.85929636557034   17.04143427267222    3.10996249704910
C         3.05792932513812   13.97041737071186    3.05067680976281
C         2.77106172397105   12.62792190851759    2.81663370001162
C         3.37061861820320   11.86713617051275    1.82303116909560
C         4.32145131834840   12.45509096929276    0.99854224418193
C         4.64974339891664   13.78904430493243    1.20249881205226
C         4.02609858791732   14.51507038889165    2.21450873090685
H        -4.96626427083281   14.73000724567514    3.76833694195708
H        -5.82870538932238   17.04292486679565    4.51881285428511
H        -4.84083686996638   19.39677462410203    5.48191154196136
H        -2.14799629774127   19.00458942394151    5.48760815432618
H        -4.90923544378809   13.11465292596038    5.70514220471668
H        -3.11124373540213   11.91826145925275    7.37381993408402
H        -0.78256573701675   13.12628534901753    6.79092506317932
H        -4.46187782419040   14.19313925629822    1.36152143281164
H        -2.32974837015150   13.97278471033353   -0.33083616388878
H        -0.24310988141985   14.79879836660041    1.14522044798544
H        -0.08976693219089   18.86638341169555    1.93702462257896
H        -1.54503399183059   18.89772904403651    2.93288077817795
H        -1.05793376746048   17.38977639366012    2.12065906264582
H         1.24818230079295   18.90334248132597    5.26069541491541
H         1.06310227336958   19.77474240528817    3.73022015235505
H        -0.28854715128404   19.69910004750473    4.85856998255748
H         0.44521248075942   18.41129830524854    7.62139595154275
H         0.78609725367904   16.77631094628663    8.19658495297033
H         1.48131038584673   17.32031217173928    6.65582730557433
H        -1.30052407651217   15.82437516937510    8.26336454507176
H        -1.86988097843112   17.49826563662595    8.12260911142198
H        -2.53557036624748   16.24829858528908    7.05395676389253
H         0.54754112415050   13.52909751935074    4.68473265837259
H         0.53698064519601   14.19587513810826    3.21106868302066

