82
CSD_code = OTIDEB | q = 0 | S = 0 | Stoichiometry = C31H24B2F15N9Ti | MND = 6
H         5.66856130740498   15.22965765589327    3.12281833874757
H         5.85353494951353   14.29142437273603    0.67704412208004
H         4.74929725536581   12.32002072826753   -0.85260829776207
H         3.05570948963435   11.05174966687798    0.86287620291386
H         7.14000083944497   14.47584293847219    5.15981061617784
H         7.21082125188733   12.46823995634143    7.01336079495020
H         5.01866942361497   10.98190597204744    6.42159381057827
H         3.82903897851548   17.01700422683551    3.74529204978771
H         1.28168179659224   17.07186213060153    4.72458032023481
H         0.62475751027675   14.45480623507929    4.96462734136203
H         0.35191684712075   12.40137692581246    1.30199659329247
H        -0.04809369239694   13.66647156470196    2.47686300685190
H         1.61001924765022   13.52028960979017    1.86300965249187
H        -0.80697660029387   11.12704628754554    2.82686083819879
H        -0.81896760743543   12.14990233676338    4.26623939095571
H        -0.03869020421522   10.53857110060345    4.29893763854443
H         2.82104609203087    9.04430934497491    1.89330489822283
H         1.38184012032464    9.74858010919093    2.66768524418496
H         2.17450280136754    8.32105351804611    3.36171418977442
H         4.49939162499350    8.52714724393926    3.94475604371281
H         4.94244772929493    9.60242099344276    2.61141061103116
H         5.20826076747965   10.11233598876217    4.29165576495985
H         1.76243416789341   12.83940036446005    6.09815761943474
H         1.07812094965006   11.44445212747694    5.67318213389752
Ti        2.75531133376769   11.92500199593356    4.06117165068669
B         4.90060758185628   14.37269110978201    3.38664520830049
N         3.76444364024933   12.45009933217615    2.25888781316352
N         4.63113841106033   13.46336564602998    2.17901885716338
C         5.13552902882734   13.54184643892846    0.94134470182490
C         4.56870878492166   12.53968055598016    0.17922477278627
C         3.70994694455518   11.88181817803379    1.05722225471947
N         4.72212074446904   12.38697337787822    4.89428323810845
N         5.40296814379798   13.47412299289518    4.51712415880054
C         6.47219832399856   13.65108148830743    5.30265453676187
C         6.49710958066908   12.63263805846748    6.23331510909821
C         5.37396875418830   11.86703238879117    5.93175472784737
N         2.56621973359445   14.11027595404815    4.21742970146447
N         3.54876259431977   14.93109729186228    3.83992399467933
C         3.17254817307130   16.20767884064876    3.99174498862860
C         1.88488992931955   16.22080548552281    4.48610026433264
C         1.55078069733584   14.87391031025214    4.61144568205223
N         1.04455964838349   12.03748238329060    3.26023800013142
C         0.73582216378818   12.94940346441714    2.17915737632298
C        -0.20063773333426   11.43205596802706    3.69451441487444
N         3.19199985747516   10.15116010324648    3.65171813210471
C         2.34485921761060    9.28253968575586    2.85846510404354
C         4.52210874370087    9.58321490779552    3.63379656291463
N         1.95165395747151   11.84675096451105    5.99951425265912
B         2.16550616269712   11.26847353333963    7.43231161481365
F         3.52637209573249   13.86481192609278    6.72880837325734
F         4.71753338041947   15.50495919152296    8.42828546696847
F         4.71575351152007   14.98015944869606   11.12648717944327
F         3.46461908752258   12.71984430175386   12.03431020697991
F         2.30889245979921   11.03185284858378   10.32124470926635
F         4.68019743002536   10.26872268760090    8.88624439419319
F         5.73716242764651    7.84344492283602    8.58543673148297
F         4.66100722472450    6.06103616768198    6.80870807066751
F         2.47791715012516    6.79863512704545    5.33217472689114
F         1.38723798442639    9.24161564559103    5.65100571224707
F        -0.01533965646603   13.13770974881125    7.37273205608565
F        -2.47256985507810   12.84516970046219    8.38704078967201
F        -3.17773063797711   10.51965374619968    9.66219099073518
F        -1.33553107333551    8.50989991537431    9.87741881194365
F         1.11391440036501    8.79559817686374    8.88223236682040
C         2.88905905471700   12.33936525695687    8.43901751494927
C         3.50895104201026   13.51417043241817    8.03627276404381
C         4.12773160592479   14.40195253568979    8.90922660102614
C         4.12836975584852   14.14025948463182   10.27136165030818
C         3.49673323384814   12.98821844285734   10.72632810281383
C         2.89784990060609   12.12411239031479    9.81744086250068
C         2.96882470877507    9.85048916970030    7.29525388922758
C         4.08067448823236    9.43547382729556    8.01979634078072
C         4.65805020891895    8.17658991779621    7.87058962428756
C         4.11893042596871    7.27102814731540    6.96700030309236
C         3.01254853716635    7.65143879386357    6.21674873542329
C         2.47689577685448    8.91965758409855    6.38608672556959
C         0.66406742652258   10.98137665457739    8.07568873338871
C        -0.30927183473978   11.97236881931905    7.99507152922065
C        -1.59089842828471   11.84540224452781    8.51368824992307
C        -1.95053120656281   10.66910707275448    9.15897283712126
C        -1.01043781135480    9.65213984813070    9.26635988161489
C         0.26476772249494    9.82196396804885    8.73319902510055

