70
CSD_code = OTIDUS | q = 0 | S = 0 | Stoichiometry = C33H32N2O2Pt | MND = 4
C         2.40709368282003    9.18585464141223   10.98770351540161
C         2.89450788973220    8.26834131130578   10.05846878833698
H         3.66063559354373    7.59060856738454   10.39227794859656
C         2.47307668587490    8.15282885889282    8.72959628937828
C         2.99009197420269    9.14012283297268   12.41184749815853
C         4.49865132581404    9.40537188907134   12.35736617440906
H         4.69649149700708   10.36309831834523   11.88116444897829
H         5.02153744882881    8.63183160641364   11.80145736029729
H         4.90428013766437    9.43202627830518   13.36672963980081
C         2.32605997259137   10.21767630193656   13.27211940419850
H         2.50542148542016   11.20352758193981   12.85060632435334
H         2.72950913804146   10.18922279885883   14.28183758582966
H         1.25190816300490   10.05709471330849   13.31917910204293
C         2.71157272170199    7.76605519377462   13.03140487747600
H         3.07423230553642    7.74400502154154   14.05707901169518
H         3.20446934703740    6.97057776251982   12.47910436074289
H         1.64245188266136    7.56581704831391   13.03962611584222
C         3.14546054932614    7.08140493658152    7.85346406568100
C         4.64188485573668    7.39198454325698    7.73759188758924
H         5.13233840965694    7.35171600533499    8.70645141945878
H         4.79141057053478    8.38572663038470    7.32041828429987
H         5.12061994200598    6.66724733076558    7.08175937829495
C         2.93486718529875    5.69627847318350    8.47416537210489
H         3.41931029836090    5.61475466397387    9.44330981794004
H         3.35182496612587    4.93220301305860    7.82075437635539
H         1.87338892848551    5.49605764685904    8.60461069474025
C         2.52197493828044    7.09993367790851    6.45533429632775
H         2.99418777849389    6.34950291601563    5.82514468963016
H         2.65492214371678    8.07532307911518    5.99262724112903
H         1.45685272123504    6.88600828999845    6.51152833089714
C        -1.41163047088849   12.48745494848594    8.88321191507421
C        -0.53992175694685   11.94211541363683    9.85463386921997
C        -0.59338119512726   12.55372043375699   11.09760790368632
H         0.03094109255179   12.21891377774299   11.91180810536617
C        -1.48096990557685   13.61444878260692   11.29420103664357
H        -1.55336455736245   14.09678847686875   12.26200404297187
C        -2.25530229690717   13.57183268849733    9.15699941182041
C        -3.11066261405540   14.07293613184884    8.09865539216667
C        -3.12743286127543   13.42764040851828    6.83648429192411
C        -2.24367459456214   12.30496791748634    6.56893230082888
C        -2.14893952658747   11.61261770558531    5.35555553090730
H        -2.75711192473977   11.88279997705220    4.50734155346402
C        -1.25608611476321   10.56402123970581    5.23922369685195
H        -1.16967435018211   10.02134299945984    4.31097658547805
C        -0.46166519809943   10.20009023737025    6.31886340963743
H         0.24220512308936    9.38226660300515    6.25076185950796
C        -1.39903266712893   11.86876211793525    7.60175948492849
C        -3.94431470416807   15.18582075507305    8.31579492136371
C        -4.80600536332632   15.60805006542331    7.31921508949217
H        -5.44712250576643   16.45790352489308    7.50362674593767
C        -4.84430064794808   14.95909689145499    6.09321057263305
H        -5.52370309790630   15.29702695380266    5.32467924320775
C        -4.00820022548460   13.89347923041996    5.85338828748896
H        -4.04299020110805   13.41226038020490    4.88907771327096
C        -3.92384237189805   15.95758984910933    9.57745490955093
C        -4.94576106400832   15.81400716086105   10.50670892924519
H        -5.72261295322753   15.08322835284400   10.33314706573365
C        -4.95822573137345   16.58603122849095   11.65439616913799
H        -5.75088852122412   16.45990491127993   12.37803773559699
C        -3.96206924681668   17.52091218467398   11.87446281322504
H        -3.97287943761735   18.12433766483226   12.77063519115535
C        -2.95212362800547   17.68271214812816   10.94037376045375
H        -2.17630510068850   18.41662272546698   11.10551769596351
C        -2.93441389326268   16.90993926467899    9.79537789823496
H        -2.14687044265559   17.03302894556628    9.06593656669549
N        -0.52794956563181   10.83681816890890    7.48022084973703
N        -2.28096852987300   14.11300092212591   10.37629372689442
O         1.52258860559547   10.07293130302170   10.79572833332836
O         1.58627288832569    8.85408432026270    8.17958230546302
Pt        0.51795501860222   10.42729125610596    9.10558478583789

