93
CSD_code = OTIGIJ | q = 0 | S = 0 | Stoichiometry = C51H20F15IrN6 | MND = 6
Ir       31.12403478949441    7.58626100903593    1.80212147893312
F        32.20818527434586    8.13041361267937   -3.45391723024355
F        31.78067979395571    9.08194935926215   -5.95894911786001
F        29.67292593266506   10.74660502678284   -6.44479449365616
F        27.98414697945401   11.42602084786217   -4.41165015192663
F        28.38530705540730   10.42290535580346   -1.92238138126054
F        32.55836739365338    2.42353004300231    1.21247548491983
F        32.09751410627052   -0.17078783263360    0.59483085035376
F        29.64277411240095   -0.94752094124244   -0.31331498033645
F        27.64603003749938    0.89852597181100   -0.56482949183580
F        28.09265665974298    3.48096355157492    0.10903974454345
F        34.15609566799190    5.67919528712755    5.92127804013881
F        34.64432879119433    5.11740339354353    8.53743817035918
F        32.82065213110035    5.81554161353130   10.44157711791298
F        30.50406345593301    7.05950392657261    9.71488207422507
F        30.01825116203021    7.59435979941168    7.09258558572580
N        31.10489084471290    9.33031828446332    0.99722475494375
N        30.62772880861062    6.69516496964011    0.11649498143327
N        31.21243785073227    5.94252806395114    2.84775875309021
N        31.68746959949857   10.01348392776007    3.09345431709550
N        33.11846829656321    7.34430957230413    1.32033890805069
N        29.12308709634985    7.78758712344059    2.27004268398366
C        31.41087971468996   10.38662774221904    1.77773293365651
C        31.35342837919480   11.54125817450842    0.97706979779215
H        31.54216028336488   12.55070210155808    1.28587255126099
C        31.00697147759131   11.12790368955106   -0.30237098714133
H        30.88298812585757   11.76761132955231   -1.15504499640058
C        30.84561789314551    9.71757481206886   -0.27462921927929
C        30.53886580863046    8.73754414292005   -1.26441805763992
C        30.44756211556203    7.34264730762673   -1.07240154692919
C        30.11090175415035    6.33726061328055   -2.04741384035386
H        29.89678007221056    6.51723120239580   -3.08387947058175
C        30.11340095804489    5.13240964370706   -1.41656225979859
H        29.91683761924058    4.17657993505800   -1.86296123823512
C        30.43493446106256    5.37122248801253   -0.03191158721069
C        30.58545433277173    4.43932017976535    1.02032561758172
C        30.94737860490932    4.70949503351653    2.36424574365162
C        31.05359393843164    3.78525857120826    3.45895812442880
H        30.88333436399815    2.72704438772581    3.40910084504340
C        31.39638670859641    4.49883690535718    4.56716363692844
H        31.55221277528284    4.10879298768009    5.55531116763993
C        31.50538804223486    5.87904272904567    4.18754305178499
C        31.81279915808372    6.97104775249415    5.03198356804670
C        31.86735795387016    8.33537962935858    4.63971802633971
C        31.59411521779835    8.67287666987800    3.32051301765831
C        32.17979278074662    9.60131908464871    5.28500660097736
C        32.04747816909335   10.61798864938497    4.29280758469452
C        32.56617098660477    9.96417558007670    6.56572323528891
H        32.69763545983629    9.21891246149422    7.33651081516833
C        32.79312591335233   11.30123700676959    6.84878288652211
H        33.09184443866096   11.58748006430521    7.84601923756860
C        32.64481270874396   12.27994789423567    5.87566574790918
H        32.82592072371031   13.31362730724827    6.12818612498465
C        32.27350784921068   11.94874615837344    4.58203806544317
H        32.16597780146033   12.70657935657202    3.82179853069734
C        30.30360628208174    9.24875447973567   -2.62799560341137
C        31.14971062896777    8.91927776861530   -3.68574744809447
C        30.94744237300663    9.41203148378950   -4.96844331884072
C        29.87569906108564   10.26483605162672   -5.21734780502623
C        29.01797132111928   10.61337787401455   -4.17774380185606
C        29.23926073886640   10.10556481868242   -2.90382207688184
C        30.33899635587930    3.02656295008393    0.67840663115341
C        31.33784933557376    2.05954395650061    0.79933500770796
C        31.11545185222044    0.72766039275229    0.47323116253515
C        29.86621314134611    0.32944452218630    0.00600238085747
C        28.85179616007004    1.27320705221271   -0.12564367638715
C        29.09567347853137    2.59846510776348    0.21113744892595
C        32.07832358709032    6.65155972408571    6.45111226732825
C        33.24896650333079    6.01074114788224    6.84810664803832
C        33.50981876839863    5.72599136017307    8.18337767569556
C        32.58146418055905    6.08422232266380    9.15704664038585
C        31.40137186586083    6.72273239583214    8.78484068204871
C        31.16468847082658    6.99869767256703    7.44374548016089
C        33.54993308156931    7.56479599741467    0.07619293850328
H        32.83556503061551    7.94135748915623   -0.63890976198408
C        34.85265054056582    7.32944263541581   -0.32403301997114
H        35.13428720739952    7.52234961132422   -1.34672906221532
C        35.76600666183919    6.84401578094344    0.59706564622919
H        36.78808482074749    6.64360230737264    0.31542600628265
C        35.32491063546959    6.62706806460383    1.89244688247234
H        35.98831587824536    6.25452438845232    2.65607864284031
C        34.00559317085366    6.89033805853055    2.21098109749377
H        33.65732410056121    6.72750295713385    3.21867662743841
C        28.24547365516897    8.16848761738124    1.33885862460137
H        28.63016618372448    8.39941379565563    0.35802938221445
C        26.88912520273887    8.28394961006500    1.58262421648942
H        26.23290284203461    8.59860778013966    0.78728193654336
C        26.40214917961047    7.99499334996342    2.84643975740362
H        25.34914982213844    8.07239243428557    3.06853917220104
C        27.31181849606942    7.60890244286657    3.81767269399230
H        26.99538811978822    7.38119680168654    4.82277380273064
C        28.65248063629171    7.52078118816407    3.49183253876042
H        29.36905819999545    7.23316305100679    4.24506377754281

