92
CSD_code = OTIWIY | q = 0 | S = 0 | Stoichiometry = C37H48N6Pt | MND = 4
C         4.73951926832519    6.20781891121743    6.67095022380442
C         3.30432068078655    4.59449850581770    7.23396932877447
H         2.40683356284595    4.01249469504099    7.18181232927138
C         4.36428139830590    4.48934989494210    8.06839287904150
H         4.56280940798526    3.80994901550432    8.87178759713611
C         6.53752880335728    5.75564377728388    8.25278614334908
H         6.75464769551071    5.05653633149962    9.06577755018085
H         6.56582690506252    6.78998487162704    8.63255010966151
C         7.45142670093812    6.33599093433569    6.06231527353915
C         8.56665683471907    4.72941500387480    7.16906470197081
H         8.79597665415437    4.06610090205079    7.97769457056464
C         9.17246115240711    4.91733965555199    5.97404744596130
H        10.03201172085445    4.43705113198179    5.55285977919879
C         2.63985682869103    6.11562204910913    5.37165168837582
H         2.33035591690939    7.13232451625646    5.63490023740414
H         1.76362281217039    5.46227159049746    5.36727827428840
C         3.28910098638712    6.16377352648355    3.98864323547510
H         3.54542939930984    5.15639636040382    3.65183686516369
H         4.21754521284771    6.75286881551893    4.07310597913142
C         2.36781653972008    6.84817755786447    2.98403280829380
H         1.52315952536880    6.19582341296972    2.74690820012886
H         1.97288079551976    7.75999749648345    3.43503070971986
C         3.10600675905154    7.22693543142501    1.70427755516280
H         3.54740075455660    6.33531353354981    1.25230133455180
H         3.91634042563618    7.90875236492206    1.96893963869982
C         2.18146269586020    7.90544215320743    0.70198958248625
H         1.37410816243498    7.23696159800185    0.40892760934678
H         2.73049667282111    8.19312072733757   -0.19161996109098
H         1.74314059379466    8.79831887933794    1.14142185361136
C         8.83329642606765    6.41915882383175    4.01461699403877
H         9.06544674202449    7.48361416768273    4.12251855022881
H         9.72259930713571    5.88868362967369    3.66466139198504
C         7.69247346643343    6.28362331445785    3.00680668208417
H         6.80723042681455    6.78460484329042    3.42763920635982
H         7.45321525715427    5.22965445731017    2.84375839080033
C         8.06420281282263    6.95663903554006    1.69032649874961
H         8.37511376473750    7.98151227443299    1.89937527421313
H         8.90985818648253    6.43427230190242    1.23428009009963
C         6.89458284963989    6.98912545399372    0.71202460461803
H         6.06529414861373    7.52104754494756    1.17935939133477
H         6.56176024906046    5.96999427034922    0.49971678267371
C         7.27173500282585    7.68506274992479   -0.58940440722711
H         7.59741359242474    8.70306029428998   -0.38937921820488
H         6.42064620126543    7.72088524459897   -1.26550857331313
H         8.08386546947255    7.15818358969993   -1.08672463917391
C         4.38742946222351    8.88729514630892    5.54885542615319
C         3.40262618462063    9.55069990076867    5.29464910505800
C         2.23979499097896   10.29037584924439    4.97376731564217
C         1.24531009366460   10.53975615124819    5.91911524923678
H         1.37800702443869   10.18616258866363    6.93302430464652
C         0.10413685181677   11.23937662413325    5.58774429581233
H        -0.62834063108526   11.41003821656506    6.36072984032728
C        -0.10715284674204   11.71664645253908    4.28852629782981
C         0.89504065139859   11.46343635068375    3.34359036150476
H         0.79559011181773   11.81591495402615    2.32915686763465
C         2.03754892236597   10.76912421736517    3.67853915960994
H         2.79953600676197   10.59565355930782    2.93166146035790
C        -1.34266492860631   13.06690490155236    2.67996362156923
H        -0.58957711573225   13.86226265801881    2.59541313775351
H        -2.32898543033281   13.51262128255571    2.56224788687996
H        -1.19919289029383   12.36139128218880    1.86043942270865
C        -2.09757134021502   12.92106535591171    5.00437116354733
H        -2.49974012071406   12.11758962497833    5.62402490265721
H        -2.94021664585781   13.45628799716188    4.57072007224905
H        -1.54053005300285   13.61484220860567    5.64804564713982
N        -1.28455792061786   12.37206049729490    3.94407212827004
C         7.03262855554808    8.99102550705916    4.89893533004769
C         7.72423797694711    9.73160908659848    4.22927457314226
C         8.53957666278924   10.56128965184816    3.42340323139293
C         9.76105134415108   11.05574639817062    3.87943791646732
H        10.08426165195356   10.82149983790005    4.88490569425392
C        10.56122683233896   11.83816083399393    3.07347823723201
H        11.49567250820072   12.19264742803356    3.47888925529255
C        10.18013969106432   12.16679236289543    1.76690153328052
C         8.95733409215192   11.65827745667583    1.31041808914904
H         8.61320674222957   11.87271607581880    0.31098450552212
C         8.15687627364871   10.88152105817577    2.11980852019462
H         7.21325125366060   10.51020058529413    1.74453080446491
C        12.30759231992012   13.29480842276077    1.38293460445542
H        12.30074173891730   13.80508179298972    2.34741141926384
H        12.76458843023608   13.96621007294426    0.65804845115595
H        12.93432995338447   12.39588456629085    1.46583534401829
C        10.69372638788029   13.04424815808846   -0.44737292383331
H        10.76022262656077   12.05556368889441   -0.92147425349662
H        11.41515630504126   13.70348302825002   -0.92636192472649
H         9.69844672184581   13.45254521521379   -0.63219254835092
N        10.95718182487503   12.99891949352368    0.97105046705753
N         3.55014698009684    5.64309025405747    6.38817456074674
N         5.22987418462077    5.49257752525070    7.71437446824534
N         7.51957846978569    5.61385157741944    7.20994679325604
N         8.48093099724436    5.89725000106145    5.31335969883425
Pt        5.89737032876873    7.62649846166903    5.77593992378219

