100
CSD_code = OTIWEU | q = 0 | S = 0 | Stoichiometry = C39H50N4O6Pt | MND = 4
C         5.53549887173149    5.19157282455941    6.76636706974288
C         4.29539415975450    4.78815356063601    8.57659399919247
H         3.39938591732692    4.62188642549382    9.13821380708816
C         5.58689536235580    4.80467180038090    8.97731520989514
H         6.02317350297999    4.66873640379348    9.94569981768061
C         7.77690395322694    5.09077539665014    7.76952691687933
H         8.21101366688113    4.88353881218987    8.75162371687486
H         8.09663898139284    6.08541116746762    7.42006981824137
C         7.75328447938453    4.15890934718740    5.54027780288576
C         8.88867673442037    2.93283941109882    7.03156420725527
H         9.33680365138542    2.68943891830363    7.97291859277706
C         8.86630687034495    2.25756125473494    5.85771578496798
H         9.29309485740741    1.31010104910116    5.59897090337296
C         3.08455072367582    5.09722104001163    6.43020442603495
H         2.47403805839952    4.20875322616785    6.62278163276298
H         3.38912061025791    5.11121127457243    5.37914260836153
C         2.28787004071358    6.36496952202009    6.73922644429629
H         2.91866737478496    7.22807470349453    6.52145010219253
H         2.02309796929576    6.38854423503134    7.79967430509504
C         1.02198187917906    6.44210157627530    5.89149176788085
H         1.30379397077670    6.44709245257406    4.83775904519934
H         0.40398971643447    5.55841924968414    6.07306399420975
C         0.21120329221716    7.69922052188092    6.19589895546936
H         0.83601003551725    8.57553884155717    6.01769879101953
H        -0.07752442672743    7.69845381514680    7.25050777680174
C        -1.03559449904824    7.79441117928755    5.32682138641375
H        -0.76151808151598    7.83882682540197    4.27658807257786
H        -1.59521191780714    8.69539803180095    5.56302063583037
H        -1.68201396593955    6.93251781882395    5.48319434803190
C         7.79108109165967    2.65360380109258    3.61619874384984
H         8.29477834756316    1.72130884119819    3.35112401932690
H         8.11245760137120    3.45323760084267    2.94326044926265
C         6.26855060531117    2.50145517308868    3.52251250328405
H         5.81350555865479    3.45461394557173    3.86246502686952
H         5.94680323416901    1.70261818833347    4.19693620698352
C         5.77745195314201    2.21218902997778    2.10823753628747
H         6.30554005089600    1.34580607472573    1.70124922517431
H         4.71726759979328    1.95395598431445    2.16348549191951
C         5.93965853535886    3.40705704527228    1.17071502110681
H         6.99616183032762    3.56591057074513    0.95222468208653
H         5.57165141856577    4.30576915362486    1.67265736576820
C         5.18112613162363    3.19776217644739   -0.13431164009359
H         5.55466285093480    2.32159311066343   -0.66139673241196
H         5.29109078589388    4.06166735190383   -0.78509179303908
H         4.12022843318599    3.05284670018929    0.05873684696760
C         5.03353874149799    6.86262364056717    4.41479117439493
C         4.15539628891702    7.65143345513824    4.12728797041166
C         3.09616485107010    8.53893446503835    3.82490636479441
C         2.94227091845386    9.71629498190691    4.55535058998802
H         3.66848630702150    9.94432338026098    5.31954858747425
C         1.87549104568856   10.56329758920440    4.29923697080038
C         0.94816541710791   10.23602947256723    3.29995814237529
C         1.11990750321442    9.06095978884364    2.55275153126208
C         2.18316569701324    8.21507857818693    2.82216754544473
H         2.33503374478320    7.30414464681247    2.26512107551912
C         2.50265727613691   12.07448802572457    6.03018436626273
H         2.50057024002794   11.31413272359850    6.81879729328446
H         2.11744424954725   13.01024972321516    6.43363659904036
H         3.52881437226379   12.22777046152783    5.67878304998182
C         0.09531141242134   12.27553886334522    2.48645864458547
H         0.70819642208204   12.89572584130377    3.14683383964932
H        -0.87558697077268   12.74675141156403    2.34190541878088
H         0.59782399838858   12.17323912128646    1.51747181334697
C         0.26880610302622    7.66246488005948    0.83010010806082
H         1.20308233292548    7.61797148257003    0.25957534473526
H        -0.57296199498680    7.69108818554680    0.13945818087375
H         0.18880281386668    6.76859924114666    1.45904333546894
C         7.40114499016583    5.98644490058367    3.30120979310042
C         8.08255125938834    6.22613582003114    2.32498356716472
C         8.87293906703491    6.48185086276046    1.17903684783085
C         8.37503420085063    6.19110902954971   -0.09005518101612
H         7.37574375158250    5.79533585200957   -0.16867923841397
C         9.15472656215083    6.41501226326939   -1.21334621033177
C        10.44497600505257    6.94585699829012   -1.07413522603172
C        10.93312944622321    7.25771341066085    0.20335435967554
C        10.15420155166122    7.01207114459133    1.32256726001182
H        10.50874159748224    7.23695287435777    2.31590883442554
C         7.49605751206875    5.54903198567544   -2.68544590553806
H         7.43410280202656    4.57852639597220   -2.18200912971078
H         7.39840249456179    5.40315326390973   -3.76067615985066
H         6.68266166080169    6.19308738988441   -2.33337957853430
C        10.88497454888694    8.16718491620215   -3.03790803951780
H         9.90503188146086    7.96868378818264   -3.48146373445665
H        11.64021858889782    8.19783382019543   -3.82164107322986
H        10.85840447151310    9.13325349660620   -2.52015838344050
C        12.74891123090380    8.10083396224778    1.48291342088372
H        12.15896179943335    8.85117785669135    2.02137241137247
H        13.73786733726591    8.50575577850213    1.27168195138022
H        12.85106127316638    7.20709108671831    2.10853736308832
N         4.28460689001947    5.01954932589463    7.22567755191732
N         6.33577762109605    5.06244213946663    7.85808480169785
N         8.20500923283063    4.10375779550591    6.81496991613667
N         8.16477803115417    3.01920393745998    4.96161700152460
O         1.63921891462730   11.73105850057112    4.97871959063078
O        -0.16797317092539   11.01245699523336    3.05698288052011
O         0.17753433560425    8.83981226223610    1.58752222582116
O         8.75094159941841    6.14848278490311   -2.49635938391429
O        11.27661447025981    7.13315872475404   -2.16164164557496
O        12.18825818900735    7.79804307152126    0.23348872542850
Pt        6.40646126242808    5.54365217683995    4.95441754964383

