43
CSD_code = OTIYOH | q = 0 | S = 0 | Stoichiometry = C18H12PdS12 | MND = 4
S        -2.39235872796086    1.25084535327634    5.01519522450177
S        -0.96430368665806    2.76467901860258   10.87113621991328
S        -1.57269538674947    2.01916463635880    8.04175933399288
S         0.49892933755781    1.22958563645879    4.25244133041336
S         2.17536588809917    2.74035340221697   10.03916759405986
S         1.29203693209990    1.99674755008629    7.28284407116667
C        -0.71468667429319    1.46129600588818    5.50744769345878
C        -0.68287254461860    0.87871475279415    3.02255810109950
C        -0.37615856301467    1.78291084983217    6.77856799794425
C        -1.97588460476714    0.88813936660546    3.36360003306006
C         0.91412220170234    2.39163139535833    8.94601619361480
C        -1.87992234338923    0.11758353164325    1.12668820732920
H        -2.13696227917515    0.49767400040275    0.14058530934220
H        -1.89895754668206   -0.97096636355460    1.08551359776255
C        -2.87347762925261    0.60646613014560    2.20385000740978
H        -3.38842608645665    1.52040359313951    1.89711908866987
H        -3.63056051220984   -0.14087636828083    2.44034445491186
C        -0.41512617399313    2.40198236122711    9.29819347453001
C        -0.47771256208313    0.58843324385542    1.57217063714321
H         0.28712811981350   -0.17032591557190    1.40799839309684
H        -0.16819353627545    1.49592541108309    1.04757526107802
Pd        1.01040719801605    3.15704915740947   11.97133610923610
S         4.41230953036371    5.06512579124296   18.92574754292647
S         2.98514536577871    3.55270382369664   13.06929480173112
S         3.59285292512974    4.29717630621401   15.89884309629981
S         1.52094419696035    5.08634843620488   19.68811219056717
S        -0.15556276551208    3.57688025495251   13.90140677274194
S         0.72813238858269    4.31953435469057   16.65760295281225
C         2.73471291578192    4.85472841806695   18.43322878785887
C         2.70257899312651    5.43703851574793   20.91820170102909
C         2.39630068488627    4.53327950279823   17.16203351283484
C         3.99563596538483    5.42763605725360   20.57733800014551
C         1.10604543278456    3.92509822167538   14.99431882998010
C         3.89937986508898    6.19789070460066   22.81435836838263
H         4.15627607702663    5.81764358951251   23.80045911718823
H         3.91843022860151    7.28645320964238   22.85569190931002
C         4.89307653796912    5.70913792207626   21.73724960316744
H         5.40798883718339    4.79515264182816   22.04395012217114
H         5.65020059857590    6.45651856928004   21.50095341533960
C         2.43537379756911    3.91479141697651   14.64218454909797
C         2.49721681198444    5.72712289434915   22.36859987823387
H         1.73235108170095    6.48587224704861   22.53277845810906
H         2.18761971131902    4.81955037316013   22.89303805634049

