91
CSD_code = OTIYAT | q = 0 | S = 0 | Stoichiometry = C36H44CdN4O6 | MND = 6
Cd        3.72631022296711    3.83082923193812   14.09359512410650
O         4.67290361676999    3.54880432927771   15.88704594279882
O         5.45400815645019    1.42577397927625   17.06043476091922
O         2.88526472360981    4.02673769965490   12.23862362630273
O         3.95022560051257    4.27588599840846    9.93675073815449
O         5.75966888137237    4.04557991295775   13.01859410283798
O         3.68695111091219    1.52725486658370   13.92277049601188
N         3.63078943652533    6.03757045218029   14.72312117335208
N         1.55949094882432    3.95198462984632   14.85547563893375
N         7.70240673673250    3.75571906158954   11.91180785499004
N         4.13045725167681   -0.65423062117185   13.56459442972910
C         4.38608784685061    6.28029154540148   15.96250774449399
H         3.83229594854781    5.83559609213769   16.79418853409917
H         4.47437307195040    7.36439053245102   16.14119028862711
C         5.74875760823454    5.64420271386141   15.92210590370165
C         5.80007039687512    4.23226766837981   15.86604797284189
C         7.06753100828286    3.60383299737397   15.79800345848466
C         8.21032289045000    4.39816511375496   15.85892257843106
H         9.17894693580962    3.91762217287613   15.86084658273173
C         8.14421161870836    5.77505040681003   15.94463104874054
H         9.04934113428844    6.36146560292239   16.00176946908212
C         6.90574170517179    6.39666077387761   15.95300076288160
H         6.84168413548528    7.47600308484022   16.00100544361188
C         7.24478120655956    2.15042023556908   15.59755501095814
C         6.48831612060093    1.15395891141642   16.24722131982378
C         6.82913658336746   -0.18899296816797   16.07579163433057
H         6.25649161772038   -0.92232747588876   16.62366323851558
C         7.85936638856420   -0.57013149674040   15.24062657390238
H         8.10833283215381   -1.61623777084092   15.12937626860340
C         8.56238164365305    0.39678876928687   14.54114843780335
H         9.35378139859634    0.11388765208153   13.86145071126318
C         8.25756363151651    1.73084154583515   14.73414689761289
H         8.82296491687267    2.48030224585986   14.19939034578780
C         2.21359734493630    6.34441186731203   14.90448348027988
H         1.77885904394296    6.50379886637545   13.91464675084470
H         2.08192429320956    7.27115754963335   15.48753570672533
C         1.46647918943089    5.20371178199787   15.60384344732813
H         1.90894628206744    5.03602620826985   16.58891834405507
H         0.41407702785448    5.49935870304849   15.74940001870094
C         0.59264350709309    3.92710254155696   13.74616362814318
H         0.64170393034858    4.88849137992008   13.22714790967076
H        -0.42774934257569    3.79508518372834   14.14138542782366
C         0.91136583867551    2.84732108192162   12.74832081548674
C         2.12305002597808    2.97156984632336   12.03020857082070
C         2.46875962785196    1.95639059428054   11.10529082546506
C         1.56797724332307    0.91597325342018   10.88927127590832
H         1.80497503032349    0.16825125778792   10.14500224690806
C         0.37247541592514    0.82527296710581   11.57507492597734
H        -0.30950994420471    0.01188280944777   11.37571976345811
C         0.05862344945307    1.78515097846266   12.52415989454182
H        -0.86625433696541    1.71351213867376   13.08173199779379
C         3.76757276783790    1.90490253764369   10.40209292632810
C         4.41115766862271    3.01890986952588    9.82583696485521
C         5.57067321547615    2.82889332415243    9.07200022769614
H         6.01074014460464    3.69842460150807    8.60706046090062
C         6.13443898402921    1.57876379114474    8.91989522444399
H         7.02817738764263    1.45586641057505    8.32432774122598
C         5.55215862757132    0.48833476602244    9.54468550473976
H         5.99728847247940   -0.49308065409677    9.46029683038349
C         4.38329722812556    0.66053519180299   10.26172438000886
H         3.92516176934083   -0.19798538746851   10.73156500925917
C         4.19612488173932    6.84690751834374   13.64828569252744
H         5.26128902613483    6.63609621591684   13.57394550420573
H         4.05656266652526    7.92106368056895   13.84180893079362
H         3.72658567216963    6.58135951787913   12.70185856500656
C         1.31537267581781    2.81153844463748   15.73258102900309
H         1.33689877559314    1.90073453376421   15.13725543171316
H         0.33646159794685    2.89178408827971   16.22872418054709
H         2.10220289514973    2.74965364123731   16.48355201892576
C         6.49971593851061    3.36461281134576   12.32424033248395
H         6.22799191941843    2.35540487184116   11.97731287393276
C         8.21772386012642    5.05416892691692   12.27954564372637
H         9.23500204116667    4.95644725144575   12.66031352864072
H         7.58259667933036    5.46755163398075   13.06059589975321
H         8.22141451672846    5.72348409987641   11.41669456016143
C         8.54124858043022    2.94437568229532   11.07073301823838
H         9.48168886554708    2.71776257965603   11.57947986475091
H         8.76642979237521    3.47459145006822   10.14292573312659
H         8.03250266356980    2.01454512868430   10.82657842975707
C         4.47731758192860    0.62342807159253   13.69472535648838
H         5.55874031003915    0.79459894684737   13.57773742090582
C         5.08694549848086   -1.70185676113649   13.32494934307473
H         5.02227596986195   -2.45452341580389   14.11355175655678
H         6.09374409269585   -1.29006577360933   13.31721182161224
H         4.88754141903316   -2.18557263182631   12.36522786786185
C         2.74782691990732   -1.05587134361869   13.68241449596046
H         2.58530364399336   -1.60147914937231   14.61430560676263
H         2.47314788489381   -1.69457370939826   12.84213029869014
H         2.12723726043091   -0.16200279913447   13.66816805580557
H         5.06228896591136    2.29706159419691   16.74699098155052
H         3.44155018548332    4.32077354097318   10.80276134319736

