67
CSD_code = OTIYIB | q = 0 | S = 0 | Stoichiometry = C30H30N2O4Pd | MND = 4
Pd        3.68527483088808    1.36720274576193    5.36524989819285
O         3.84662626844211    2.16242081875805    3.51311356706267
O         1.78636965857704    3.10775829915410    2.16357555164273
H         2.35097850237049    2.55022433020215    2.73984962085074
O         2.18028868654144    2.66672823469917    5.78151641682333
O         0.96268450410231    0.91426337887759    4.27104292444896
H         1.60708510919040    1.50755280672334    4.73542398932775
N         5.33891450016758    0.19992900885979    5.04525861367393
N         3.57875325790210    0.53062304702450    7.25941773275311
C         5.07397776813282   -0.51892704430376    3.78727867992736
H         4.06658948227723   -0.96580708769512    3.87199333104778
H         5.80620241054087   -1.33100859818781    3.66219014240803
C         5.12976691196909    0.35862990018687    2.55750852615647
C         4.47500626145432    1.60900192374944    2.49902023866224
C         4.52199676494076    2.33662843451238    1.27803777662387
C         5.19979494075030    1.80154610219433    0.19290718908040
H         5.20622710905554    2.35259671206196   -0.73573052073667
C         5.84508978879339    0.58032613339721    0.26591148900301
H         6.36584434367168    0.18424630035062   -0.59199170620138
C         5.80870240175432   -0.12838615749371    1.44851826744371
H         6.30606808602225   -1.08685722487640    1.51514197395329
C         3.89810786394526    3.66634377038518    1.11330588834884
C         2.58696384097999    3.97602926133411    1.51262986234410
C         2.04281938150274    5.21734254479378    1.18476623477421
H         1.02404519873304    5.40780941691764    1.48564872100210
C         2.78001356131885    6.16349460448861    0.50592929715118
H         2.33951461680691    7.11966732080510    0.26352401429557
C         4.09091796975359    5.88684987615711    0.15201861191002
H         4.68789477488258    6.62857226234097   -0.35827297860791
C         4.62960417695870    4.65139241521879    0.44871806231588
H         5.65251757782301    4.43791639927027    0.17078389983089
C         5.42791829521009   -0.70578239920129    6.20086684664636
H         6.46069292801748   -1.05377775388699    6.34390448402118
H         4.80715902175648   -1.58547360756135    6.00983592338199
C         4.93622794350374    0.00787154661321    7.46882500717817
H         5.59968082069700    0.85018236100556    7.69519384153868
H         4.96225523281375   -0.68533704992933    8.32329129035307
C         3.25203074964627    1.62070376861741    8.21093548983371
H         3.92141473729200    2.46701710274927    7.99060426372420
H         3.42498170145579    1.28273324353921    9.24304077891344
C         1.80787273890788    2.02736836256078    8.05231800081926
C         1.35217883513982    2.39623045696906    6.76523871079981
C        -0.04696955673729    2.46008079691609    6.53886829255954
C        -0.90510915322018    2.37047586962055    7.62858395217318
H        -1.97000287468427    2.43061858310291    7.45881782987301
C        -0.43281517747138    2.14577089327151    8.90888767480008
H        -1.11960057256266    2.08393561630274    9.73899660272599
C         0.91863450051991    1.92212901015868    9.10683556867998
H         1.28512549453111    1.65372800461779   10.08854232134289
C        -0.61789966229068    2.51777268516898    5.17995727586152
C        -0.14828643334905    1.70251678123159    4.13351040119784
C        -0.82973680469461    1.66512487261925    2.92343911605690
H        -0.44702867021816    1.02217297966830    2.14695492028138
C        -1.94706078013991    2.44770796253579    2.71775552348243
H        -2.45991338370191    2.41491668466543    1.76790824001193
C        -2.39221693300891    3.29003115224537    3.72342153385870
H        -3.24954733242221    3.92703086406586    3.56142688719706
C        -1.73823760165146    3.31121813963684    4.93859244031546
H        -2.08555375507784    3.97063139992891    5.72128278190052
C         6.55433104363091    1.01091947974827    4.94206191409295
H         7.42833499591838    0.37411109166347    4.75241207706348
H         6.45752307685284    1.71968659073538    4.11900922951033
H         6.71309300758316    1.57155525236560    5.86622121766979
C         2.59506835087619   -0.54946813723817    7.36304128960393
H         2.81707435502034   -1.34149335055052    6.64766131009907
H         1.59740801846214   -0.16617983448978    7.14596517919152
H         2.59053229314505   -0.97383935515383    8.37510646771932

