75
CSD_code = OTOKUE | q = 0 | S = 0 | Stoichiometry = C38H26F8P2Pt | MND = 4
Pt        5.57519301568813   13.76814846896193    9.85221752869889
P         4.55395702274674   14.79278753997383   11.66222146534874
P         3.51740221484081   14.21257757070252    8.81139551695588
C         3.13960953301668   15.86122690746304    9.57352213087247
H         3.98468407746783   16.52692303395967    9.38159358494649
H         2.23925022282824   16.30786395230677    9.14292050319327
C         3.00510731845727   15.64705895138418   11.08302581856243
H         2.16262711594863   14.97998043409941   11.29948972374668
H         2.83378657100813   16.58867823108075   11.60647394308768
C         6.39249750742989   12.91882773579425    8.22028625460221
C         7.03531080299871   13.64783987452074    7.22134912775326
H         7.24306106638164   14.70209197976000    7.36862924102779
C         6.54995535222072   10.96009227631868    6.80581112386199
H         6.35738564339050    9.90746464573176    6.64683102975304
C         7.17553101156357   11.70425049167922    5.82017627861398
H         7.47302026562196   11.23744966958305    4.89112626880567
C         7.42108033539144   13.04914173211668    6.03328468232578
H         7.91443661930124   13.63565293596759    5.26947496358134
C         6.16187014055110   11.56291700556571    7.99027044969141
H         5.66176901053313   10.96887823666763    8.74945809861655
C         7.42849499742763   13.86739532774141   10.62500148032229
C         8.04752874280869   15.11099226124982   10.73770225342433
H         7.59419279542805   15.98786390432137   10.28354065958181
C         8.04751765062186   12.77045292766230   11.21666754621740
H         7.59401910984866   11.78958456923435   11.13840186778046
C         9.24112838759971   15.25698086775857   11.42454604330275
H         9.70207520401853   16.23289040349955   11.50402571509803
C         9.23967499521940   12.91452765129220   11.90723484666283
H         9.70386918350123   12.05171374109034   12.36540453264480
C         9.83783372973945   14.15788344539970   12.01696752228902
H        10.76589344566756   14.27024028152277   12.56032986752230
C         7.19450781465148   16.34453582831349   14.37554483617388
H         7.82388968762991   15.92095591755152   15.14114818004545
C         5.46695434062227   15.98697461677785   12.69028100816038
C         5.60035323996766   17.33356302715929   12.36641226518083
C         6.32128503109056   15.52550489522194   13.69039252819185
C         7.25724256295011   17.68689301805960   14.04279220246110
H         7.93919731668927   18.33982032824810   14.56332796672986
C         6.45903464660880   18.18771936399639   13.02927031181772
H         6.50451783209756   19.22373579309590   12.73375677364755
C         4.10584697303107   12.30998225414644   12.83565435570270
C         3.87355184777785   13.67660242782656   12.93289669147083
C         3.60994354934850   11.41148396964457   13.76221983269626
H         3.81583349177056   10.35994721648644   13.64587441935657
C         2.60822207672771   13.24466561561642   14.95892714902276
H         2.02951017889584   13.63247660673532   15.78193195509458
C         3.11894324850477   14.11093211645299   14.01311043693497
C         2.86151179355822   11.88883483858213   14.82433345229217
H         2.47192397365582   11.19999768735523   15.55725091633501
C         1.78204194508619   13.58734601045166    8.75333756371180
C         0.81262470062571   14.00438727536265    7.84906622612975
C         1.38829625925804   12.61281402605390    9.66003002296051
C         0.12230026617259   12.06040380061686    9.67931994648682
H        -0.12077510019527   11.30515013227250   10.40930160901367
C        -0.80312626846545   12.49398177166254    8.74570510716854
H        -1.79508632759969   12.07125713034363    8.73585937505908
C        -0.46370641481181   13.47423528670369    7.82887798898395
H        -1.17260339461242   13.83475440941260    7.10068101501175
C         3.72722558868203   13.34507048015895    6.23733664108443
C         4.09307177256332   13.31403318782148    4.91041194472698
H         4.00818369648078   12.39556675267697    4.35339098067608
C         4.58685785791579   14.47397561302530    4.33620831597548
H         4.89010154630301   14.47403849870539    3.30156242626146
C         3.80676418906854   14.48501544188314    7.03476093023596
C         4.32211621263317   15.61686202427440    6.41823244547821
C         4.70002717590507   15.62879858780408    5.08780067395519
H         5.08893087841947   16.54049876160764    4.66309179026978
F         6.28771052034546   14.21508159121847   14.00178519054212
F         4.86583284121507   17.82746269220058   11.34928060170201
F         2.88207059531722   15.43564660662868   14.12587272818645
F         4.83148360748545   11.85842911179764   11.80173018771981
F         2.28996336057568   12.21566043129213   10.57824085975670
F         3.25243694673856   12.22481503125467    6.82329620918014
F         1.11541048955430   14.98014226204696    6.97014745916086
F         4.46171436082899   16.75257050662769    7.12616641041814

