92
CSD_code = OTOMOA | q = 0 | S = 0 | Stoichiometry = C32H54N2RuSSi2 | MND = 8
C         3.43574457089495   11.91057726842458    7.03763967276867
C         3.13496677783127   11.73155893095365    8.39080689439163
C         2.97177343169790   10.42788901101562    8.84220599632207
H         2.74114020253619   10.24903060352876    9.88229185812230
C         3.07333118737581    9.35160649510063    7.97786793077811
H         2.96670539235802    8.34253301872629    8.35386821803544
C         3.23244638795615    9.57438194802176    6.62098682878555
H         3.20891782055548    8.73567500581117    5.93919417621831
C         3.39716734706101   10.85922844480788    6.11786222898163
C         3.92382961453994   14.64191398970978    9.72271923834629
H         3.40885570784312   15.59342677477554    9.82071111991037
H         4.60733023620624   14.71680397546033    8.88127296924523
H         4.51627158576949   14.49081460535422   10.61927528720919
C         2.15770438200603   12.62054627204511   11.18199180417913
H         2.97422835950640   12.14285350986636   11.71444915556119
H         1.33748409039870   11.91306025145429   11.12986709250529
H         1.82476119708549   13.45737125901151   11.78671564004184
C         1.08426802817687   13.97021467122400    8.63889257095040
H         0.68022191565055   14.78811241050076    9.22840231043771
H         0.30911509744096   13.21508051698878    8.54505930223496
H         1.29805255059268   14.34595974282129    7.64396858123348
C         4.88882286766445   11.99422007911392    3.48896070419526
H         5.37280176334813   12.66514157040630    4.19459080802107
H         4.64265517548688   12.56221316119587    2.59655579298405
H         5.60808502095383   11.23078346905033    3.21016481479012
C         1.80786943063971   12.38451740840962    3.94580586831856
H         0.89636217545840   11.93414526844174    4.32845308765256
H         1.66750339197892   12.56295365447249    2.88345432528261
H         1.92954255691627   13.34402858733817    4.43575095707952
C         2.93502041976425    9.62673397238262    3.31898920127000
H         3.74233277353416    8.90389374248339    3.36939629251796
H         2.76719868193282    9.84616860272178    2.27000955491693
H         2.03700196772892    9.14993021447002    3.69711094234043
C         6.37859101266621   15.26734540207318    5.28187630640696
C         7.61803493798349   14.59267233040399    5.27244040701405
C         8.18478760345551   14.68057404382954    6.59467963902849
C         7.31753353352971   15.51796321914377    7.38432416080398
C         6.19013879956930   15.84283712334083    6.59934526710748
C         5.52244259481590   15.62377771779053    4.10287310971052
H         5.60533691367911   16.69435525269262    3.90069004173041
H         4.47496655073237   15.39587029473385    4.30190652777517
H         5.82960902908388   15.08111513292441    3.21188946402180
C         8.32561035355377   14.02487525385664    4.07704579412826
H         7.62192173114685   13.73935983267142    3.29825320434100
H         8.90955790203802   13.14577940942477    4.34573546893857
H         9.00786890530739   14.77367338862596    3.66708280029017
C         9.59941795007104   14.32295421965363    6.94838813990392
H         9.92085155798590   13.42558206509650    6.42227224904065
H         9.70578417649397   14.14818471789487    8.01767475236497
H        10.27024290433327   15.13962429690049    6.66886796960380
C         7.65537240543699   16.07028835171619    8.73835055145118
H         8.22637620988986   15.35280201661995    9.32559566633078
H         6.75750759181870   16.32733395537553    9.29648365264903
H         8.25971659490352   16.97361327030706    8.62440104052063
C         5.12439300627539   16.85206381685226    6.90916485328165
H         5.29305159488243   17.75630877169503    6.31912727105130
H         5.13041340536294   17.12387408833877    7.96230847575617
H         4.13777330663764   16.46193187444121    6.65876336986650
C         6.55041978289398   11.81684122248535    6.28406951815287
C         7.25528976336892    9.37124582674157    5.94372207132088
C         6.59018219104050    8.68157573043946    4.75139375095488
H         5.51051803561000    8.75356918113419    4.84468741429762
H         6.87841944744301    7.63392693567103    4.71825189783088
H         6.89112597932393    9.15656054624483    3.82081497762102
C         6.81802853000606    8.71027296341999    7.25516968466672
H         7.31080511256714    9.19154985603766    8.09721138701430
H         7.07983944455742    7.65519070163913    7.24876520648519
H         5.74217390005590    8.81299667466821    7.38034750346589
C         8.78202888839119    9.34178674305632    5.80271531392066
H         9.08441869718346    9.82127572458896    4.87446181783967
H         9.13548374564618    8.31396963790810    5.79664878426020
H         9.24770658654482    9.87018062073935    6.63211263379992
C         6.26101019245723   12.84220035014100    8.52019839922167
C         6.75243335796980   11.71761944942610   10.77715810417964
C         5.85789788012911   10.48370791407560   10.92058866649853
H         4.81989218135768   10.78924118803631   11.01292043887467
H         6.14353764936417    9.91551508688476   11.80236327873985
H         5.94379502132584    9.84824181061477   10.04275519757407
C         6.57161293146847   12.64924408111248   11.97962334223386
H         7.16045111172243   13.55480568983522   11.84992532224012
H         6.89425231836237   12.14880927025304   12.88909310766814
H         5.52595737171064   12.92741448200155   12.08493766151476
C         8.22442152367294   11.30823709204936   10.63479818636290
H         8.35838030171980   10.69337675307024    9.74777446743265
H         8.54270208552759   10.74393031151983   11.50759114669935
H         8.85408106474030   12.18976174943232   10.53746385610628
N         6.84196861160870   10.72100310704117    5.97708211053006
N         6.37195432064541   12.41161662946079    9.60799236010108
Si        2.65862634253020   13.24005121096896    9.44154341722252
Si        3.31202604360180   11.24832270764664    4.26187024897907
S         3.80677138124072   13.52868433406606    6.46382882542937
Ru        6.25027552365521   13.59884613507364    6.80058849202165

