86
CSD_code = OTOMEQ | q = 1 | S = 0 | Stoichiometry = C38H45AuPS(1+) | MND = 2
Au        1.53433070943075   15.49791766750103   13.89981448669707
S         2.59469652224985   15.44373870038810   16.07969310965953
P         0.50663411593513   15.55151677824271   11.86856099177392
C        -0.34087157679905   13.91269673411995    9.65957731458567
H        -0.64272793611799   14.88469992120450    9.26900904100367
C        -1.49728797553794   12.95005928862731    9.78855165901111
C        -2.81199277481838   13.20023692840304    9.45104452383402
H        -3.10345985046360   14.15778450182506    9.04485448492868
C        -3.75357806425017   12.19791556232399    9.63852308980997
H        -4.78451483979816   12.37995996684844    9.37740900921872
C        -3.37951006582297   10.96891156277417   10.15341183093377
H        -4.12074502619780   10.19718475957878   10.29175075750885
C        -2.05640374018595   10.71590154171379   10.48939603662286
H        -1.76375519029528    9.75438740306962   10.88395892734613
C        -1.12064407920458   11.71173387816951   10.30207470269523
C         0.66721499098776   13.20232458244536    8.78694910742459
C         1.20555585272018   13.67125709922913    7.60674041055706
H         0.90668379043998   14.62929423980777    7.20704457818216
C         2.13448015356735   12.88688162907424    6.93678976647059
H         2.56265653991864   13.24120817025730    6.01193212919868
C         2.51248362569068   11.65644934348669    7.44475518590388
H         3.23441705797837   11.05571338039457    6.91375273698652
C         1.97014051991128   11.18420426758243    8.63255614496351
H         2.26387247709056   10.22315789034124    9.02694692084805
C         1.04737840201617   11.96339403219791    9.29797320202483
C         0.35749728638457   11.61982727001245   10.59980267458164
H         0.66055604045551   10.65745697428803   11.00954192258177
C         0.66800815179354   12.77975160062786   11.52635097106466
C         0.30703034937538   13.97505775099546   11.03675724510197
C         1.31449598063026   12.49127169706221   12.80873313531968
C         0.61726426153816   11.80051674858577   13.79662836106920
H        -0.40976898873309   11.51554018565397   13.61919649203084
C         1.23502591115891   11.48548818645718   14.99341721885409
H         0.68716477593127   10.94774703112187   15.75307211294665
C         2.55720322402017   11.84100100599289   15.21173231341350
H         3.04148203802463   11.57917309750585   16.13992186975985
C         3.26152966201614   12.51630455044676   14.22936808744001
H         4.29580109689906   12.78002554695619   14.38898289747397
C         2.64378285416570   12.84640495346054   13.03389923751764
H         3.20012932063828   13.33503971780816   12.24693996856671
C        -1.23090396264752   16.18054222637011   12.01266948054815
H        -1.59645056994910   16.45906763391171   11.01620448778798
C        -2.08416408386964   15.04457285577702   12.58781578662463
H        -2.07653490532478   14.18381683748090   11.91675468830191
H        -1.64711570660808   14.72565377185499   13.54175175470854
C        -3.52422844308304   15.49832393618951   12.80624492970937
H        -3.96726395019154   15.75926155278860   11.84312447906331
H        -4.10362396235848   14.67467738733688   13.22560088670305
C        -3.57723739024286   16.70694831098258   13.73368151290742
H        -3.19435246914750   16.42885321904840   14.71865468577312
H        -4.60915019897138   17.03568065045484   13.85819884889137
C        -2.73692749571058   17.84181119220160   13.15948215480103
H        -2.75310291075301   18.70019432835909   13.83296298944909
H        -3.16021529475302   18.15994883811188   12.20478527704219
C        -1.29377574820953   17.39027166738439   12.94683013580824
H        -0.85475427846251   17.10911432729437   13.91164986802259
H        -0.70971874824807   18.22109913999482   12.54957358303318
C         1.42953035076496   16.53501727134163   10.60261470127294
H         0.83849238816376   16.54895588391015    9.67779126072307
C         2.75152624187152   15.80082939820456   10.35642141869863
H         2.55722811238359   14.78585231403969    9.99945887543252
H         3.29518315711517   15.72994202432201   11.30554918428012
C         3.60779136855472   16.54638586817487    9.33830802907762
H         4.54579449814695   16.00978629147497    9.19031549205004
H         3.08635882137184   16.57500173949990    8.37942457761074
C         3.88238122552175   17.96820011161196    9.81491622922033
H         4.45191044103531   17.93755741019981   10.74646747174290
H         4.48040941251751   18.50022513200496    9.07478097891957
C         2.56787796435191   18.70525565811354   10.04319545833650
H         2.02910527281760   18.78516954448343    9.09663520343751
H         2.76216063081801   19.71700976805635   10.40188130309923
C         1.69432343301346   17.96882432686943   11.05782145379604
H         2.19658445449383   17.94892028404421   12.03138509950602
H         0.75396944863081   18.51113066959885   11.17024545789510
C         2.25652494170958   17.10712727432275   16.80976151737473
H         3.20052439446804   17.49426355110842   17.18595683971505
H         1.89271615351303   17.75558543232613   16.01668995990203
C         1.22325437119380   16.90071095454173   17.91004897342810
H         0.64231670124402   17.81016125821209   18.05690560955830
H         1.72299065776757   16.65689699952474   18.84823443790733
C         0.34493384944206   15.72840997754415   17.48643122057322
H        -0.27351404433495   16.00774880163600   16.62954633676148
H        -0.30851051077435   15.40327489878817   18.29486177545634
C         1.30918442837205   14.62428205061450   17.09755809928472
H         0.86587778463447   13.81892373766702   16.51847917054849
H         1.81583856699151   14.21217734565279   17.96961365930217

