85
CSD_code = OTOMAM | q = 0 | S = 0 | Stoichiometry = C36H39AuF3O4PS | MND = 2
Au        1.59613735175712   12.97474151760839    7.28937557002772
P         1.99990197182020   13.75194422372335    5.24514875547050
S         2.07054354463969   12.21505701219284    9.94939911285672
O         0.87409795055604   11.99959554919180    9.11479714524714
O         1.84828250667259   12.15485686937522   11.35191731770312
O         2.88669902612174   13.29280909571427    9.43115363338617
O        -0.55520921495392   11.53286284525594    5.85842425946511
F         4.23826816411415   10.64624000278659   10.20016933654994
F         2.43631043853830    9.55792284475091    9.74575550695595
F         3.40883995444059   10.72664788974283    8.21459587790476
C         1.65516339626702   12.69269720913611    3.83287885762380
C         1.75420451989527   13.26522683178075    2.42053554479586
H         1.97615798007518   14.33145485183305    2.39449768203214
C         2.80338658415122   12.43653879750275    1.72153953372623
C         3.94299062021205   12.90673846942939    1.10237812078539
H         4.15570116457780   13.96563612141730    1.07197028621905
C         4.81444420796670   11.99718725254485    0.51913017392673
H         5.71140960371143   12.35237788400608    0.03455332283266
C         4.54246071194361   10.64096187131207    0.55535766808771
H         5.22828826904653    9.94348694746697    0.09860996618544
C         3.39420076044239   10.16747128412775    1.17571964972154
H         3.18152593922005    9.10884125105146    1.20334115831858
C         2.52950750721125   11.07110804599082    1.75708740746934
C         1.25071520162188   10.74789332228160    2.48960681120520
H         1.03476558057160    9.68143637964700    2.53583046724796
C         0.17468040713422   11.54630308418422    1.79770135436128
C        -0.98928261070244   11.04971633707444    1.24920248656062
H        -1.20554589723733    9.99232757638910    1.28690420165127
C        -1.87867191802401   11.93086696292767    0.64965513074083
H        -2.79407891521812   11.55413754323625    0.21870357539450
C        -1.60199802671274   13.28582639347664    0.59982979110260
H        -2.30158664714511   13.96076964727681    0.13009266863310
C        -0.43103581937171   13.78609803320554    1.15173343675010
H        -0.21520337688850   14.84405615022615    1.11336454594866
C         0.45112941481167   12.91069208746482    1.75099389141789
C         1.40622128071697   11.37677325723938    3.86915271564233
C         1.36186659438832   10.46290958211651    5.01495371368575
C         2.31452676388778    9.45246339381859    5.07963390031131
H         3.08725044126945    9.41831531658043    4.32485759261639
C         2.29367078341044    8.51819395182566    6.09769620948978
H         3.04941581393970    7.74955689154729    6.14286784333310
C         1.29519425872121    8.57718306116546    7.05244770389445
H         1.26334621311521    7.85336770822295    7.85199691528310
C         0.33139003788206    9.56895802567775    7.00165682978028
H        -0.42330554231788    9.60480212924466    7.76900863575097
C         0.35546282468883   10.52213473153106    5.99099600810648
C        -1.61645940433595   11.58852599249535    6.79008912503872
H        -2.22530777239970   12.43986260242727    6.48891416288574
H        -1.24155752270039   11.74220829508898    7.80573253270032
H        -2.22531619557369   10.68044852483994    6.74903852832140
C         0.97513746494314   15.25056486760593    4.87564642817049
H         1.29993052972383   15.71136768680375    3.93427558124377
C        -0.46553299752301   14.74505235543522    4.75179394354415
H        -0.54914583021120   14.02876109483986    3.93180365571613
H        -0.71704832163295   14.21590352983332    5.67488002131836
C        -1.44293791831943   15.89520919176253    4.53678996192281
H        -1.21099373629344   16.40084476414070    3.59612992244211
H        -2.45801256421697   15.50157910246431    4.46056086932926
C        -1.34700352765759   16.89155796906319    5.68637971918198
H        -1.62127069932228   16.39662500416210    6.62003310419904
H        -2.04060092847570   17.71907307203965    5.52642774131933
C         0.07835556955134   17.42007502864695    5.79330122537557
H         0.15676102314943   18.12270984902406    6.62458624946499
H         0.33363990628043   17.95800863709462    4.87645957583779
C         1.07110354303569   16.27793852810884    6.00299667368876
H         2.07770818164163   16.69406317210731    6.05549277664265
H         0.86690650754163   15.77723149935231    6.95501512114590
C         3.80271378148696   14.11712180529128    5.00597863747834
H         3.95387283824789   14.66620934975995    4.06679861503471
C         4.34184292825988   14.92355353545520    6.18799031957638
H         3.90381431518686   15.92237588749826    6.19897516949784
H         4.05738560314250   14.42274852671993    7.11899337101090
C         5.86181176755021   15.05532459205686    6.12491622796707
H         6.14461527917298   15.61472064410537    5.22863635146265
H         6.20788626437321   15.61650787552060    6.99419190501751
C         6.51861516857296   13.68149285158421    6.09290167158177
H         6.26502778523438   13.13901438757544    7.00531318113408
H         7.60432657883829   13.78556615831513    6.04907263260452
C         6.01708317390820   12.90245611217489    4.88329272829608
H         6.29819575684684   13.42727847714408    3.96622653385109
H         6.47513295976373   11.91243535593211    4.85462934131723
C         4.50028646532720   12.75371259081198    4.93583661718865
H         4.21898524422869   12.17374331192275    5.82172407369601
H         4.16201670909602   12.20372806060106    4.05442164742394
C         3.09299225256772   10.69541347591708    9.52213174021374

