45
CSD_code = OTOPIY | q = 1 | S = 0 | Stoichiometry = C14H24AuClN4P(1+) | MND = 2
Au       -0.38859733071524    3.39072240256528   -1.32017757304643
Cl       -1.05425378048092    3.24448947394766    0.84872885637025
P         0.60014617332775    3.52772019945330   -3.40820515114177
C         1.92244857740273    2.30856872738243   -3.48492383366177
N         1.85105671507640    1.01802444090392   -3.09892599757140
N         3.07488985335358    2.45404372728156   -4.17853637417314
C         2.98246483887660    0.35595254605199   -3.51310254100792
C         3.75800800684864    1.26014929288023   -4.18214692930193
C         1.53928625587255    5.00695839656632   -2.98942739110758
N         1.19646548753872    6.22115428055790   -3.45505234395261
N         2.55019467279505    5.17805349223678   -2.11237726861116
C         1.99052123283403    7.17646082857816   -2.86795717548614
C         2.84906129369907    6.52147874481793   -2.03071296476340
C         0.76861745608339    0.37521607535357   -2.40736235541674
H         0.16096286849669    1.12504809422876   -1.89002486026304
H         1.16289688756667   -0.32767646045539   -1.67535905564760
H         0.13166316851060   -0.16191051654060   -3.11223890248252
C         3.20188932798259   -1.08312756500039   -3.23848439991897
H         4.11203161433169   -1.42256136530297   -3.72212681652221
H         2.36938809906083   -1.67556910484265   -3.61438946525846
H         3.29192920407359   -1.26655679286330   -2.16804501869369
C         5.08219472067831    1.10219709463889   -4.83057446194982
H         5.51680543697138    0.14586314491804   -4.55811879555878
H         5.76425086319336    1.89180386305841   -4.52008758025387
H         4.99125540740606    1.13522414403658   -5.91647799939303
C         3.47330022122915    3.62381279326631   -4.90939064827810
H         2.57965799189443    4.15872169329217   -5.23483294671785
H         4.04160256113693    3.32213613660750   -5.78741268939247
H         4.09226094292638    4.29015295798631   -4.30473573798080
C         0.12266222624308    6.48643542979456   -4.37009604158315
H        -0.18207225669523    5.54890322303555   -4.83884247850371
H         0.44718841720912    7.19163173949421   -5.13469240159127
H        -0.73503536538625    6.90526455417956   -3.84088564847788
C         1.83247539678995    8.61923050366726   -3.16432613027093
H         0.81381993185145    8.94070352979717   -2.95291133007998
H         2.04205721161870    8.82741659189328   -4.21321885338983
H         2.51121196248446    9.20582962263973   -2.55416519563473
C         3.92353729679234    7.04706819248763   -1.15490738325681
H         4.85251370893396    6.49905806362217   -1.30274598418228
H         3.64038267800403    6.96771186924345   -0.10513059359721
H         4.10273452151463    8.09425892639958   -1.37674337869725
C         3.11293072971172    4.15652813708388   -1.27452967916124
H         2.32161106884362    3.45546601094150   -0.98980164108304
H         3.51105808562228    4.61091736186492   -0.37010239365991
H         3.91472561882908    3.61382549770303   -1.77892244567546

