77
CSD_code = OTOSUM | q = 0 | S = 0 | Stoichiometry = C29H41CoN4O2 | MND = 4
Co        6.07277137736577    1.07100955631066    2.83911573490972
O         5.35128363191818    3.47902893687805    1.80967281609269
O         7.59934745722271   -0.16714337203192    1.11610841591524
N         4.60987812249237    0.03588597033504    3.64880354227327
N         6.82187991908362    1.59321082856143    4.57998075076887
N         5.75852338877372    2.37185543767536    1.93208450140357
N         7.06038236420103   -0.07826703218299    2.17183761928411
C         3.55161961692726   -1.33080717966496    5.39680863355686
H         2.71820978625616   -1.39718207748360    4.70268787379911
H         3.18849612654581   -0.98749942308346    6.36347367150254
H         3.97350945582143   -2.32545716308082    5.53591757463850
C         4.62955297772777   -0.40702225359362    4.88857722949872
C         5.61512261560092   -0.06368708890957    5.81492008588876
H         5.55318966906099   -0.55386190512378    6.77478891445389
C         6.60378481729122    0.90848708368622    5.68726956554282
C         7.44283665486265    1.16018393237121    6.91482662067713
H         8.11735110790802    0.31516502966623    7.05384202697171
H         6.81373572236324    1.23232988745194    7.79929891175205
H         8.03519055293992    2.06580601425572    6.81767709255324
C         3.51804687531061   -0.26573820348106    2.79233214644424
C         3.49380639125063   -1.46236371927109    2.05893771679379
C         2.40507726944350   -1.71910133578766    1.23808410227966
H         2.37456838795802   -2.63432474811228    0.66706686072475
C         1.35279439958677   -0.82945209831225    1.14704097902834
H         0.50752067665752   -1.05240846753643    0.51301893711308
C         1.38613050024904    0.34821553098645    1.86858264053816
H         0.55916723630233    1.03700831820790    1.79418657164232
C         2.46143647391816    0.65467387400257    2.68889731712051
C         1.51893060952455    1.85000715891193    4.66657019696393
H         1.81576776831161    1.04180597309182    5.33074093081640
H         0.50215294161802    1.66117610498340    4.32858223389407
H         1.52794438879153    2.78022449885922    5.23079489817276
C         2.47089847986394    1.94868183547280    3.47149326739354
H         3.48377163330078    2.11536926893918    3.85658571722484
C         2.10566410337321    3.14879400245036    2.59685619063312
H         2.73562184919927    3.18165863159593    1.71162543709705
H         2.25527853789894    4.07008011708959    3.15478739341863
H         1.06608005065961    3.11095695419980    2.28176367231954
C         4.12862808283866   -3.82177016939180    2.63987024989435
H         3.62022078922561   -3.71926749528722    3.59556086844901
H         4.97015541431318   -4.49941982858121    2.76656681218307
H         3.43466078892159   -4.27050757733732    1.93342593373422
C         4.62290422451517   -2.46448111775741    2.13207528774236
H         5.38002212907931   -2.09282887427453    2.82976889043638
C         5.27953229914118   -2.62487659849421    0.75823586178760
H         5.59394044884549   -1.66027376647564    0.36786310359507
H         4.58876281347917   -3.07070449641839    0.04678801523875
H         6.15439514440069   -3.26661893479066    0.83517041002630
C         7.64436404028947    2.75061754697906    4.60345651835486
C         8.99278139155242    2.68207487377948    4.22439721658066
C         9.74698325295689    3.84645126564057    4.22100864715912
H        10.78494207915294    3.80654356132281    3.92825572350643
C         9.19423202132047    5.05539112398170    4.59536960134909
H         9.79590278055127    5.95211970432200    4.58922088225271
C         7.87044385255344    5.11183859333330    4.98564153482730
H         7.44863711907177    6.05769952544899    5.28901557647563
C         7.07681712125851    3.97450105411253    4.99853775569543
C         4.85901939954400    5.10903289825691    4.64777967520274
H         4.91289988479714    4.88080890100927    3.58669979477570
H         5.25228961376152    6.11017875206381    4.80421057586152
H         3.81444843645017    5.10451614574742    4.95338347144759
C         5.63973067186027    4.07385182076101    5.45966686768682
H         5.15498121891948    3.10205019296587    5.31924818666711
C         5.58208126631669    4.42028540473882    6.95052930629053
H         6.12061970311175    3.68367792955779    7.54150674927194
H         4.54799300688723    4.44365933948128    7.28831676044925
H         6.02520195657016    5.39608343567077    7.13506684782016
C        10.76699592428626    1.01146008910891    4.80099791576940
H        10.39930803837206    0.97153939528733    5.82405688459992
H        11.56774262097354    1.74549120594923    4.75513918907254
H        11.18010784420022    0.03860106219194    4.54379328118874
C         9.63775993265349    1.37317029574108    3.83279008195812
H         8.88358704743605    0.58051239496660    3.88463684938581
C        10.16045566768009    1.44004125851390    2.39626946058432
H         9.36550662865138    1.74104759304392    1.71744916147483
H        10.52570884455475    0.46414392558614    2.08465140862233
H        10.97431256193546    2.15556069091669    2.30903985147660

