87
CSD_code = OTOTEX | q = 0 | S = 0 | Stoichiometry = C33H49BrFeN2O | MND = 4
Br        6.35115224973247    4.44630822545422    5.31033414570651
Fe        8.24743462917130    5.56955049593830    5.44425188771062
N         9.14949407218338    6.57318238973482    6.85486079298477
O         9.32468419708260    3.39866406964548    5.42668952305891
C         8.00246326631437    6.32215636230333    2.05223705590520
C         9.61041351398899    7.80718581993281    6.84641532692417
N         9.08693064580018    6.79034465239600    4.19800385733686
C         9.11532813084153    6.22378500623707    2.90743559285430
C         9.50228508889560    8.02776446001194    4.39102964643784
C         8.11200630652788    5.52785754644790    8.79365853246451
C         9.71011924102780    8.54441131770497    5.66868821865817
H        10.04726688948042    9.56607959930412    5.74612725560860
C        10.28687421761251    5.56589639862072    2.47635757721914
C        10.06607795792055    8.49306812257661    8.11131813338081
H         9.94515016333358    7.85008991961928    8.97977106409245
H         9.48968057822545    9.40575584821832    8.25802133379857
H        11.11377948571989    8.77667229389709    8.02240885810830
C         9.12503782386240    2.48486325575218    6.49821668230672
H         8.05124268930326    2.29259789449026    6.62000187419346
H         9.51453346751999    2.93916724864666    7.40754264410960
C        11.44867399886005    5.37912346945183    3.42962140894266
H        11.01787700264064    5.23066595374604    4.42786300683133
C         6.71220677253145    6.97170847252036    2.49797483741871
H         6.77202686860962    7.14709858168566    3.58157172653714
C         9.25044849451827    5.76056813806722    7.99673867773553
C         9.79341148892896    8.96110760453946    3.23851695604566
H         9.02535922519042    9.73351469172979    3.20496759292863
H         9.80857140549987    8.43307447028992    2.28852048056540
H        10.74907190791837    9.46150684679602    3.38250233288430
C        10.48228664148370    5.16662187483081    8.33457744357455
C        10.34231667384441    5.08630865204922    1.17734346375027
H        11.23877254073791    4.60619853097722    0.81853334132302
C         5.51000193399898    6.06518776504598    2.22063925825670
H         5.69117492326634    5.05591746098321    2.57721905478102
H         5.29138871095347    6.02132972716834    1.15647186262998
H         4.63130634795608    6.45165662657569    2.73122812568046
C         6.80912038531620    6.24111625485251    8.50915763280855
H         6.82433245272746    6.57924772604746    7.46223431859711
C        11.73898402803903    5.44042286055584    7.54007429801351
H        11.49745953303472    6.13926924765144    6.73387948735681
C         9.85402423076975    1.19679496309901    6.08231523814536
H         9.28986477602721    0.31786995128646    6.38554893357867
H        10.84131519965143    1.14637969717455    6.53816279206942
C        10.54036479264970    4.32450091529062    9.43553993249120
H        11.47830717631957    3.86067786372899    9.70278254799920
C         9.26530828431825    5.22009669391424    0.31924042514361
H         9.33318626481842    4.85001621052664   -0.69311630635923
C         8.22130568067584    4.68679326506591    9.89062061047196
H         7.35928890353410    4.50936616242472   10.51382319545743
C         9.17640588589781    2.60618448732714    4.25689627411872
H         9.54745673320322    3.18079687647412    3.40979294020664
H         8.11494394207014    2.37463906128711    4.09851204581910
C         8.10270100311495    5.81609724720238    0.76368832324068
H         7.26138870397133    5.89999897575960    0.09355794373161
C         5.58791971718210    5.34345409434701    8.70876182451459
H         5.72513488015961    4.38475125040169    8.21697992383734
H         4.70950807622239    5.81927801405635    8.27962021873246
H         5.39458735695736    5.17120672440347    9.76493257504669
C        12.34813054402151    6.61917421768869    3.47593700204774
H        11.83988026426710    7.45243336094232    3.94801442074714
H        12.64476213099335    6.91131398632503    2.47009141747473
H        13.24601986908707    6.40109869453201    4.05085448739621
C         9.42071900985695    4.07755954641267   10.20728844089260
H         9.48660369615816    3.42227384283472   11.06325324179429
C         9.95869765197804    1.32121492150785    4.55228344595023
H        10.99866495062601    1.42772452228943    4.24616139714263
H         9.52978854284451    0.46810859976802    4.03237825597322
C        12.81261062434134    6.07748062054954    8.42798388122643
H        12.42219298243728    6.94817775345031    8.94849029714844
H        13.66080453199103    6.38929494861568    7.82175525262055
H        13.16923432698563    5.36970927118728    9.17266927974502
C         6.50054677612026    8.31651113471853    1.79758650478290
H         7.30940596091039    9.00754877650393    2.01407211944624
H         5.56634230139808    8.76404665382592    2.13006514282809
H         6.45051808121856    8.17815251818482    0.71947552313052
C        12.31611540546456    4.16704505001043    3.08175184391343
H        11.71325215167184    3.29083319657471    2.85806040947889
H        12.96505471909790    3.93022897041931    3.92158537920646
H        12.94973917243476    4.37872536245321    2.22271635510466
C        12.28254426955494    4.15984124525623    6.90334316219854
H        11.55773900801857    3.75170097392076    6.20633767378478
H        12.50393746504706    3.41073210234389    7.66062341286480
H        13.20220912339017    4.37926633072575    6.36437765585834
C         6.69294857851489    7.48032391953746    9.40234419508504
H         7.49681886806708    8.18240146222969    9.19986611672665
H         6.73999711073537    7.19527350843480   10.45185058585161
H         5.74446432463199    7.98155617250268    9.22211835180713

