59
CSD_code = OTOWOL | q = 1 | S = 0 | Stoichiometry = C16H35N4O3Zn(1+) | MND = 6
C         1.62916899799579    5.51396399874089    7.71465829512907
H         0.76276705426495    4.95150471093160    8.06432011527294
H         1.30124545798809    6.54430966869618    7.52142763706964
C         2.69044365598981    5.52240519466764    8.80811505485688
H         3.52909186035508    6.12983317651053    8.48028193619170
H         2.27357247205507    5.98856355623865    9.70976025630419
C         4.50460765392730    4.14186428975362    9.66945220202055
H         4.73900906608110    3.09611846141535    9.87120777558655
H         4.49209023614845    4.68283081972804   10.62692080137831
C         5.62888062573828    4.72322471048425    8.81778231918409
H         5.49360015388486    5.79502386580802    8.66803312631006
H         6.54036683868179    4.62145856374850    9.41130281281625
C         5.89756171618793    3.99627123212536    7.50443325060223
H         6.81975155477024    4.40094294848189    7.06435210338411
H         6.05643504000680    2.94508644592025    7.74303606018451
C         5.22143098163534    3.17103744913334    5.38442782070507
H         5.58187156405880    2.23685554523528    5.81430228590099
H         6.04168053213339    3.62686288699424    4.81373470108362
C         4.06085695224014    2.86417358235134    4.44681775257593
H         3.71670501177031    3.78882239829531    3.99123085969398
H         4.41531342930177    2.20801292152366    3.64208614935252
C         1.66719269049549    2.42081844598311    4.49702190776625
H         0.92689588334387    1.87360946373797    5.08200422163010
H         1.71911073209094    1.96466905637800    3.49813715391363
C         1.18106591358044    3.85695667572882    4.33118311023842
H         0.21393664084446    3.79514141813837    3.82708580000885
H         1.82979788832045    4.41473641736090    3.65570629943773
C         0.93162714812806    4.61796931447763    5.62932024105181
H         0.44471260485472    5.57212230916752    5.38220331541110
H         0.23488465845924    4.02525609364066    6.22210126552117
C         3.07421293411366    5.74117936955136    5.78504355811761
H         2.90574405041539    6.79037591943629    6.05550502723440
H         2.88948256962957    5.66938900971519    4.71586035402888
C         4.56277605602716    5.41042843038357    6.04830484167463
H         5.12521087591147    5.61877780477108    5.13021479613621
H         4.94289119584330    6.09758170972159    6.80134541333739
C         2.26212063832666    3.54494836234322   10.08260248429249
H         2.48805167552020    2.48572330705390   10.18071842569193
H         1.22404061885381    3.65485574783374    9.78145391258323
H         2.38562995230504    4.02051949987247   11.06186166796422
C         3.19126042424415    0.78789606682052    5.24339994668086
H         2.42403530499129    0.31634082302721    5.85183409518464
H         4.15607021142322    0.58300592800143    5.69591247495230
H         3.16894390674970    0.34726986405072    4.24090465386090
C         3.72413913292087    0.52171470147429    8.55946727567205
C         4.80466574539838   -0.39525922347181    9.09254962311397
H         4.35353069421946   -1.28122175086006    9.52735414289194
H         5.38756167040573    0.12732846131592    9.84781040412579
H         5.47520114201831   -0.67890273976662    8.28517656643030
N         2.10852940418489    4.88200405437375    6.47931521648337
N         3.15088725306966    4.15939678540844    9.08852244827468
N         4.81949638022071    4.03998475263449    6.49815639308768
N         2.95751969681491    2.23585282595324    5.18115662300377
O         4.11820905045716    1.57542164243414    7.96618975419829
O         2.53304208441856    0.22612934457012    8.72084443889132
O         1.22129536232066    2.05460965600338    7.58672053408202
H         1.64317739716937    1.22802618416415    8.03893092635301
H         0.43726118304884    2.24337756987711    8.10835246643883
Zn        3.06063837364481    3.05700027191037    7.18864490463097

