83
CSD_code = OTOYIH | q = 0 | S = 0 | Stoichiometry = C40H36N2O4Zn | MND = 4
Zn        1.15491672999948   16.47324395884286    6.74080999849657
O         2.34311711577114   15.24508732284962    5.99925772523583
O        -0.64319242867805   16.09016688851995    6.61257522652815
O         5.61892774728370   19.59536786073256    9.68084452565439
N         1.75993201174503   16.15104370656306    8.56089544727102
N         1.04340469863048   18.14926880118945    5.73529183796178
O        -1.94117249535258   21.21747216329525    8.55257182466237
C         3.40504431020749   14.78151552461301    6.54708300285628
C         0.02367576216888   15.15786719924549    9.91542453859253
H        -0.55061933086830   14.92686397538347    9.02145992853077
H        -0.64453090698375   15.29739979506207   10.76139641513731
H         0.68359075465431   14.31843735168151   10.12696669557628
C         3.79345021888765   15.01355205211165    7.89564861489539
C         5.08392194369538   14.56402165160687    8.35043800222272
C         7.14323813146166   13.31050089725978    7.94079919432061
H         7.73051177818094   12.69357370800193    7.27522198475522
C         5.62320257314709   14.92164078284621    9.60027278689820
H         5.08064242961504   15.58682545027260   10.25424090813567
C         2.88372002202232   15.57037027416808    8.82554878889069
H         3.12973056262247   15.43047838959961    9.88180829627029
C         0.04047607302295   17.64527668928921    9.35849699661865
C         7.62221473536784   13.64906060010396    9.17924574252759
H         8.58770975741590   13.29829623462038    9.51198163919799
C         6.85599141958998   14.47344169577160   10.00498626462354
H         7.24296825078805   14.76977364463405   10.96933681345864
C         5.88951696766814   13.76537533294127    7.50214519450927
C         5.42040999503922   13.45326817518647    6.19874719683847
H         6.03623717147780   12.82548401158685    5.56932584556838
C         0.86039303015211   16.41537414858269    9.67301128431893
H         1.45609679771804   16.62047433893936   10.58024936654726
C         4.25045458086495   13.95084863368430    5.73826783370360
H         3.90315049783351   13.74537559292845    4.73642812218391
C        -1.58056502813391   16.92282325872619    6.35712992641368
C        -2.04318506648506   18.84311822773337    9.10975694071222
H        -3.12118818899124   18.81943694406503    9.12910267236393
C        -1.38488471031926   18.24923549239400    5.88505243992573
C        -1.35936418382681   20.01442232125237    8.81312864764400
C         0.03553002428651   19.98920262707484    8.78761613653147
H         0.56155422779682   20.90366244845806    8.56436142964081
C         0.71915579829466   18.82541665768817    9.06037534889152
H         1.79961799740087   18.82962523276520    9.05933102672634
C        -2.52599846485212   19.10862987428117    5.68771591489413
C        -3.53859786680106   21.24925450395054    5.13917394441546
H        -3.42038237781446   22.28909985130122    4.87094771384250
C        -2.42671828838375   20.46978120796598    5.33985095168398
H        -1.46186994091699   20.94123183840543    5.24470012670094
C        -4.82101924614207   20.71875619947633    5.28893343662299
H        -5.68835189378228   21.34040150027392    5.12414353672783
C        -4.95806833473330   19.40804388495676    5.66462151478853
H        -5.93984337822197   18.97874303671026    5.80924920105807
C        -3.33885798679187   21.32478149975181    8.67953450581305
H        -3.86079340999353   20.67683589284551    7.97025747338125
H        -3.57519494410764   22.36372627341628    8.45555075548728
H        -3.66413470280406   21.09004448701571    9.69846019484413
C        -1.34507292697698   17.67583837798059    9.37310013086658
H        -1.91242991608095   16.78655885271840    9.59354061402803
C        -3.83358753768338   18.59318349463498    5.87585922670868
C        -3.99572903239029   17.24578935665878    6.29283614100779
H        -5.00094225698330   16.86860888995539    6.42538476602632
C        -2.92607657295736   16.45654610457268    6.53272463747665
H        -3.03958738809242   15.43440296305896    6.86240103483310
C        -0.09729095987693   18.72107543326802    5.53290787014919
H        -0.07187861933413   19.66504086142611    4.98404427881045
C         2.23205419918187   18.79971419714520    5.20368261128269
H         1.95330800441080   19.78177439594125    4.78622473321864
C         2.81981968836568   17.94566571299455    4.08071948713600
H         2.89955974711176   16.90989171708887    4.39728355704363
H         3.80260767964951   18.31818202867460    3.80195840366006
H         2.16550322901777   17.98317650869652    3.21234543414694
C         3.18382652295128   19.03386986801641    6.35367071705234
C         4.11328648219164   18.08289494959708    6.76104007477315
H         4.23850921576032   17.16965255846008    6.20487795035342
C         4.90900543890539   18.30216058233156    7.86565340416679
H         5.62807872616656   17.56389294335177    8.18469507906812
C         4.80213108178055   19.48627569730431    8.59581084670058
C         3.89735285983081   20.45563492008023    8.17730788164124
H         3.79739900249030   21.39132507605247    8.70483295294551
C         3.10174340530258   20.21973180156722    7.06915979427229
H         2.39932049046621   20.98081885417552    6.76010577192674
C         5.57508487298017   20.77998912742790   10.43838030208997
H         5.85008827507163   21.65262728037717    9.83711006822545
H         6.30661999322869   20.64813241067931   11.23408185463574
H         4.58582535568801   20.94002492314605   10.87998849365960

