77
CSD_code = OTUBOW | q = 0 | S = 0 | Stoichiometry = C38H32P2PdS4 | MND = 4
Pd        0.00029673256556    4.06367430206648   -0.00044399557226
S         0.26032244850103    2.12862414975190   -1.28017405580953
S         3.03246705586854    2.13755959682534   -2.92757297660395
H         1.72385253022694    2.44862792445781   -2.92601000383150
P         0.24428430081415    2.85008199645166    1.86582753867546
C         1.73867232895591    0.97020304843300    0.73067903224193
C         1.74934582041195    1.52251932059285   -0.55758395356331
C         2.95001040898842    1.50992039384723   -1.28620351758610
C         1.87730685239054    3.27290798871829    2.53163127195620
C        -1.00604997531809    2.91548136589241    3.16736281211998
C         4.10795495311161    0.99899772078920   -0.71808461418362
H         5.01917153641061    1.01397244502618   -1.29598785550881
C         4.08848611239617    0.47486413006150    0.55961663131045
H         4.99233879651751    0.07476864336421    0.99266860303253
C         2.90821772691395    0.46311527077852    1.27933922451428
H         2.88642214463949    0.05114447530387    2.27793951500851
C         2.38030433193091    2.76123164450018    3.72294223622547
H         1.75420263946978    2.14612476056194    4.35491888689048
C         3.68516827168561    3.03478379200274    4.08942723971981
H         4.07581137923715    2.64359164289752    5.01756318169233
C         4.49532646188803    3.79873486908975    3.26473737854919
H         5.51531650683187    4.00331225779241    3.55424406423488
C         4.00504043009920    4.29355984210888    2.06726713202716
H         4.64371062635031    4.87756962712008    1.42152595530461
C         2.69864622301370    4.03228147462616    1.69862552401097
H         2.30456745853094    4.41677842291132    0.74259173746034
C        -0.81325628550117    3.46691551220041    4.42773718240021
H         0.14873871007552    3.87766247796484    4.69902235580045
C        -1.87092305124426    3.50969801489697    5.31981154880048
H        -1.72535988169074    3.93703460442190    6.30080229510602
C        -3.11472017615935    3.02255002680133    4.95474378926291
H        -3.93529816202629    3.06553663494805    5.65471890892095
C        -3.31715719684527    2.50327616642019    3.68505032686512
H        -4.29509823853287    2.14989379145296    3.39407613733960
C        -2.26763596402654    2.45596056298390    2.78989682984676
H        -2.41261111821745    2.08114278667157    1.78050719651765
C         0.48766200478569    1.04128296973331    1.54659456191804
H         0.58772532756388    0.50638505657159    2.49453505420457
H        -0.37975527526655    0.66815313680116    0.99233815837121
S        -0.26036570750017    5.99956591446822    1.28024784103741
S        -3.03268850458796    5.99047457967552    2.92764774214058
H        -1.72414410796458    5.67901951924419    2.92610703836115
P        -0.24411309129156    5.27819325395837   -1.86589247972601
C        -1.73897324558287    7.15764892840947   -0.73069518858808
C        -1.74950871263356    6.60545813760558    0.55763050477506
C        -2.95019238076306    6.61799843741537    1.28624183012226
C        -1.87707121899300    4.85509330025006   -2.53165983048064
C         1.00621557275434    5.21274960938823   -3.16740278907140
C        -4.10817620026259    7.12883159253646    0.71816509182681
H        -5.01930083734223    7.11408394082210    1.29623955783571
C        -4.08888779342790    7.65261295179791   -0.55966763725369
H        -4.99283386769640    8.05249776194712   -0.99272211795493
C        -2.90866130623021    7.66431205836280   -1.27946313007213
H        -2.88702133878018    8.07599302703865   -2.27818635123903
C        -2.38022593088150    5.36679796496737   -3.72289259917850
H        -1.75424537349937    5.98201706439717   -4.35488251819363
C        -3.68512372710148    5.09320478385671   -4.08923248043985
H        -4.07592461722150    5.48448860152438   -5.01726012276727
C        -4.49513207413813    4.32912665769177   -3.26451194530105
H        -5.51514236813020    4.12450687027317   -3.55389413759800
C        -4.00467795337749    3.83425422063563   -2.06713428506678
H        -4.64322477229630    3.25018040202976   -1.42134062377715
C        -2.69826880563591    4.09561972589550   -1.69861072245584
H        -2.30406901843830    3.71108623300383   -0.74264924596910
C         0.81331155346636    4.66130748104804   -4.42775777785138
H        -0.14878273872522    4.25076520280563   -4.69901677295711
C         1.87092801692803    4.61827689287619   -5.31988956840453
H         1.72524665149989    4.19092617301269   -6.30086111062402
C         3.11485236252675    5.10513916764091   -4.95488495125712
H         3.93543392369936    5.06185655218664   -5.65484538333175
C         3.31740449160639    5.62448118812562   -3.68524051797214
H         4.29544879912573    5.97763053209902   -3.39432359711556
C         2.26790903271908    5.67209227790824   -2.79005566561462
H         2.41300616428296    6.04699021357992   -1.78071272863710
C        -0.48789985578591    7.08693176724693   -1.54655832206117
H        -0.58802243480149    7.62190519330809   -2.49447968748296
H         0.37941661913475    7.46015897312436   -0.99223665532514

