51
CSD_code = OTULAR | q = 0 | S = 0 | Stoichiometry = C22H20FeO6S2 | MND = 6
Fe       -0.66379098825103    0.69429253858101    2.26670026320848
S         3.25226485257377    3.52591327916642    3.49295893795684
O        -0.43834006255246    2.08962145170881    3.61220065864645
O         1.24971387590776    0.62366215479508    1.86366458096082
O        -0.20407452079507   -1.10983566845258    3.63465408954769
H         0.63751959557665   -0.95840092296597    4.07867641094868
C         0.51715656137352    3.92006190237387    4.79694506982831
H        -0.47370750246822    3.94283027835424    5.24130692296536
H         0.70704211982437    4.85910140510111    4.28052249232060
H         1.27087174189165    3.80632060414624    5.57355754217996
C         0.59929526017338    2.77530167357435    3.81491065336234
C         1.82605671645858    2.52745484313917    3.18442413533141
C         2.08505647166384    1.49468799572612    2.25297097925427
C         3.46858868562771    1.52916373404999    1.81497538332820
C         4.08596954600575    0.67367698530064    0.90546245745283
H         3.50297356752962   -0.11419471973095    0.45305129359940
C         5.41753330600989    0.85825294330696    0.60059157380659
H         5.90600007144002    0.20158878895501   -0.10403405310364
C         6.14315470328587    1.89032886446412    1.19347335165902
H         7.18591257716405    2.02013200324371    0.94391409814845
C         5.54774025935366    2.75232987333841    2.09322752469120
H         6.10433475894182    3.55496729126970    2.55161382628409
C         4.20750817321291    2.56783559670894    2.40047701577993
C        -0.06078988472222   -2.19761167002611    2.73204394490443
H        -0.01944209965840   -3.13993166549920    3.29353831208397
H         0.84163353934265   -2.07635524065751    2.12409326871228
S        -4.57950564614768    3.52692896887319    1.04126207265159
O        -0.88914201209746    2.09008116032574    0.92152157114018
O        -2.57754280287937    0.62360126021824    2.66936043957103
O        -1.12408343812880   -1.11104118969598    0.89984562021799
H        -1.96541797069162   -0.95902089938952    0.45551889933415
C        -1.84400197531044    3.92184793283560   -0.26166704354182
H        -0.85317790109977    3.94459309689788   -0.70611549494764
H        -2.03339191715087    4.86048449302224    0.25566526144133
H        -2.59785916597213    3.80918964877419   -1.03829509362242
C        -1.92655184484147    2.77624457254814    0.71934169897865
C        -3.15345834457583    2.52814876354409    1.34946254872936
C        -3.41280081763397    1.49473217858585    2.28008159147268
C        -4.79656705245715    1.52869188691020    2.71735987815621
C        -5.41439614252234    0.67223048142239    3.62564796775282
H        -4.83160491915751   -0.11607213985085    4.07757175107238
C        -6.74615025032990    0.85637049934400    3.92993672399519
H        -7.23498147706790    0.19890915767044    4.63356343773566
C        -7.47149151627165    1.88903197847524    3.33773256968272
H        -8.51438933846650    2.01851628037611    3.58686153857514
C        -6.87564085676247    2.75198189557946    2.43918102013310
H        -7.43203741903621    3.55505151501325    1.98131623608239
C        -5.53524342461273    2.56785869914924    2.13243365182148
C        -1.26923865470768   -2.19723430603714    1.80407924818419
H        -1.31230966080184   -3.14032246676192    1.24401334681637
H        -2.17139677619436   -2.07339778780447    2.41189982471055

