44
CSD_code = OTULOF | q = 1 | S = 0 | Stoichiometry = C22H17ClN3Pt(1+) | MND = 4
Pt        2.24046406576388    0.90421105230788   11.65881473657159
Cl        0.53048292949144    1.59273300902057   12.90090220849009
N         1.57359028844820   -0.94024914291879   11.25975320077756
N         3.69953763421501    0.31718569896011   10.59655801543518
N         3.34106171121644    2.57354773913680   11.74457391677685
C         0.44024439277894   -1.50981503223433   11.65866271917960
H        -0.20991453274545   -0.90133698096461   12.27516973870656
C         0.09907803833964   -2.80719258456689   11.31221378284140
H        -0.83021996474068   -3.22817370616438   11.65878743270742
C         0.96990015042042   -3.54051484441475   10.52069122545642
H         0.73528190586868   -4.55335061371405   10.23349757487802
C         2.15211628590909   -2.95093673682846   10.10169517522661
H         2.84687571248816   -3.49891279534827    9.48661272544176
C         2.44087152266529   -1.64535399098750   10.48075241076011
C         3.66245497468019   -0.92592064954947   10.09250657114750
C         4.71371365081278   -1.37714647444519    9.31092569569385
H         4.71628431913947   -2.37797164801677    8.91292641121847
C         5.80204542773179   -0.52842964085520    9.05769592596205
C         5.79223758335695    0.76197262792612    9.60873282225145
H         6.61008069350116    1.43293896835429    9.40609478162354
C         4.71692459574588    1.16596426679379   10.38369047394868
C         4.50526493763575    2.46126169198207   11.04569589588192
C         5.40360504542299    3.52029475864795   10.99102185470953
H         6.32096047901701    3.41964914239902   10.43462632214848
C         5.11140476633340    4.70176580859421   11.65407589104333
H         5.80094442970633    5.53045258494945   11.61903848012159
C         3.92182785471290    4.79760382794585   12.35998670550345
H         3.65683314811046    5.69806990640014   12.88902631079552
C         3.06495658349235    3.70901228208327   12.37896263429217
H         2.12574749641962    3.74005834864246   12.91746814479092
C         6.92187462643724   -0.98058037284225    8.23789340816351
C         6.71212433463355   -1.81869313949296    7.14084168914440
H         5.70790793047108   -2.10830393779128    6.86868949926696
C         7.77284149447778   -2.24103541142953    6.36617775721826
H         7.58746670518869   -2.87749245711489    5.51390622211962
C         9.07692944526535   -1.85963643027570    6.66588279320671
C         9.28534902458106   -1.02847645192119    7.76465293141293
H        10.29118695065298   -0.72806706169127    8.01745496189723
C         8.22994961129986   -0.58750462670962    8.53360181015940
H         8.42358883373162    0.03171578545294    9.39697447190493
C        10.22767527986372   -2.31118750968034    5.83035410996619
H        11.04903222494469   -2.64965070466003    6.45859257000663
H        10.59599569864497   -1.48105235520234    5.22742004508435
H         9.93682171386881   -3.11645219977693    5.16159794606628

