39
CSD_code = OTUNOI | q = 0 | S = 0 | Stoichiometry = C16H13N5O4W | MND = 6
W         5.97910328830568    3.30935974145771    1.89579813340611
O         3.25467473948414    4.79422644136375    1.61514714664590
O         4.20517781920731    0.72760963089550    1.99198631135548
O         5.61663608819958    3.69555422142264    4.97311847851525
O         7.30867370997127    6.14050274541640    2.06571544571543
N         5.28306790542002    2.77890495117038   -0.96971997626387
N         6.22102140955170    3.05454922052957   -0.15988096550672
N         7.42004308701072    3.04767106592835   -0.79918341413046
N         8.81425949173276    2.29806836831081    0.93970788267765
N         7.91361819609459    2.17799414789147    1.93214247039761
C         4.25974723043470    4.25458158044507    1.70419593144596
C         4.92000984463729    1.61662989476061    1.93527685618821
C         5.77984250781251    3.51558784658173    3.85064139328681
C         6.89448403079020    5.07658132567850    1.94044918749902
C         5.81251526651617    2.56676540503246   -2.20518863718578
C         5.22118796644143    2.23795836212637   -3.42369758592253
H         4.15386174978194    2.11361337599257   -3.49629527295291
C         6.05659487685400    2.08367284221520   -4.50770192953651
H         5.63715290858489    1.82866663096941   -5.46894221304150
C         7.44177084543684    2.24781152502690   -4.40424993466582
H         8.05173316417791    2.11501953865456   -5.28474523730588
C         8.04979166399153    2.57512651049116   -3.20838501492724
H         9.11964816753886    2.70393660881592   -3.13746156357283
C         7.21695771143297    2.73164520960775   -2.11290858319957
C         8.62686547921389    3.30139346611736   -0.07212277537940
H         8.54566057212591    4.28685027271834    0.41815167650897
H         9.47422225490805    3.29531419147078   -0.76125930783242
C        10.93612625327999    1.27257318066528    0.10048330523612
H        10.57419652031516    1.06259708309323   -0.90655180280558
H        11.58808419417150    0.45950255387692    0.40597958975592
H        11.52206133551547    2.19172492862255    0.07550115006437
C         9.80890322240355    1.38192626810696    1.06025247183495
C         9.52197665953999    0.65564758314995    2.19313158850441
H        10.09440877380789   -0.15157817190520    2.60118852692343
C         8.32547056859511    1.18585361955734    2.70577029438028
C         7.58269027758216    0.75135931241695    3.91404512483640
H         7.40860440716770    1.59994770180010    4.57368686682485
H         8.14743721433795   -0.00903857932021    4.44660845129309
H         6.61101859762693    0.34278939884741    3.63691593093339

