57
CSD_code = OTUQAW | q = 0 | S = 0 | Stoichiometry = C18H30Cl6P2Pt | MND = 4
Pt        3.86914273545869    6.12419350628477    4.00580772658224
P         3.88686658740200    4.07980367579689    5.05534354032471
P         4.35910706535885    5.57516765464140    1.78212215097212
Cl        3.79797842864949    8.26041129841122    3.12346694764864
C         5.98478177522982    6.32328683564780    1.36838225062449
H         6.24537894713823    6.12713413563271    0.32568280316479
H         5.85940401626353    7.40105287672491    1.49916884785250
C         3.48847212222581    7.08970833787852    5.74322973255303
C         3.24027750776573    6.33888588603287    0.53578810253532
H         3.44670287770618    7.41083208301969    0.54600708999257
H         3.46880646404522    5.94657678672777   -0.45849783889173
C         2.90372712433148    8.71657619177312    7.96849051564264
C         1.86988591313426    8.11831220352507    7.25116603865225
C         4.50204520297118    3.82778896716551    1.15951086478242
H         5.03051534988527    3.25173409447558    1.92342442414619
H         3.47846442723199    3.44440399910083    1.11264797572951
C         4.22547338580962    8.52457634091526    7.57171657439389
C         2.18227895873758    7.32589759871390    6.15442313903149
C         2.81835440617073    2.80013905899296    4.26672259486358
H         3.33921493843463    2.44632563638570    3.37438262544374
H         2.70493543346834    1.95210786878471    4.94565171099337
C         3.29930498563985    4.12445785407959    6.80446577267674
H         3.92280363374102    4.86396429640953    7.31542728255641
H         2.28550649841392    4.53231603251157    6.77347966628576
C         4.49078481996713    7.72325133171971    6.46799531195953
C         5.49158463406373    3.17164415228225    5.14510153521166
H         5.29846105337686    2.15541695596565    5.50040443129041
H         5.87109879321974    3.10305777044348    4.12211066062466
Cl        0.23538313751759    8.36149892611688    7.72682702899901
Cl        0.93525643805469    6.59199197178942    5.22495258588963
Cl        6.10600096459600    7.49949473319976    5.93076223749891
Cl        2.54848104718758    9.69383385542696    9.33675514767254
Cl        5.50401819425416    9.27350096712825    8.44521626734505
C         5.18938718190067    3.63022771993294   -0.18512166126902
H         4.74267955940149    4.24999919261142   -0.95858132368194
H         5.09483856525285    2.59054325274127   -0.49497534439235
H         6.24873334311686    3.86495876544743   -0.12316336157484
C         6.51839329848586    3.87439476666435    6.02228920894840
H         6.65030432976797    4.90349201179208    5.69801802775341
H         7.47903486520854    3.36700341340091    5.96058847018804
H         6.20506240459056    3.88540937379651    7.06299303856292
C         1.46524488594070    3.38292392247325    3.88509056267339
H         0.88857959457099    3.64095997249704    4.76938495158235
H         0.88942417057007    2.67364664437503    3.29377311206484
H         1.61151103963611    4.29219409375878    3.30158853474931
C         7.05024929454171    5.81269051150394    2.33139127762389
H         6.71878473537187    5.98782325013623    3.35682725978062
H         7.99204836435711    6.33595077493108    2.18142012542864
H         7.22487405345802    4.74566606327949    2.20101293573730
C         1.78010863698177    6.09896105314669    0.89979017760423
H         1.53362195097218    5.03838166794791    0.87488005324145
H         1.12167659591917    6.61955903158780    0.20772061201777
H         1.59046093658313    6.48080723834541    1.90355561046150
C         3.30773229210711    2.80849034686538    7.57292116199122
H         2.63913042710114    2.07841813758006    7.12405157516337
H         2.96639155898136    2.98743995232982    8.59052724516401
H         4.30583004772526    2.38151495915288    7.62528200513251

