53
CSD_code = OTUQAX | q = 0 | S = 0 | Stoichiometry = C20H28N4Pt | MND = 4
Pt       11.61563269903302    5.01820203176391    3.55453021944338
N        13.31491413637254    4.06331819278635    3.57979771237760
H        13.61911987952246    3.28294337180138    4.15839215232074
N        12.54912047804686    6.00156183146143    2.15301902780180
H        12.23287143937072    6.78216808408640    1.58098453301268
N        10.68146965341564    4.03280795483416    4.95314673502665
H        10.99435985321364    3.24949720160880    5.52317718247881
N         9.91611044920566    5.97416275217587    3.53034610718610
H         9.61510059949268    6.75729176895876    2.95363935604410
C        14.23214695735458    4.49507092023031    2.70288200266892
C        13.79978576722101    5.59256402156847    1.89219431950243
C        14.66665537759336    6.13654895888983    0.93085332424131
H        14.30109987640370    6.96209485240488    0.33995893260748
C        15.93516978870163    5.62936033042939    0.75450324740701
C        16.34580030532845    4.54936372915398    1.56463502539108
H        17.33725627310686    4.14217858343228    1.44014250125012
C        15.52752670905637    3.99099788899718    2.51259338235334
H        15.87071940221737    3.16291663666178    3.11766093887732
C         9.43052436918211    4.44076063024128    5.20885674026890
C         8.99505555230783    5.54165737093144    4.40448241814042
C         7.70360165398281    6.06547547748709    4.57543902264918
H         7.41530166385647    6.89591169282203    3.94968416044891
C         6.84233569740489    5.53324441222541    5.50944427538693
C         7.28765794088869    4.44693871558173    6.29235246485944
H         6.62436005471411    4.01810876252921    7.02750690775834
C         8.54145738130025    3.90925631577523    6.15508697122849
H         8.85404815351917    3.07658787471688    6.77032670256616
C        16.91091320259028    6.18347214462820   -0.27147254979759
C        18.16017787114971    6.70258621095708    0.45469574316337
H        18.86686236739571    7.11487231479324   -0.26300823255582
H        18.65790787722224    5.90893228131308    1.00479073210531
H        17.88629379866423    7.48481945841669    1.15927349271881
C        17.30335077500967    5.06608311573347   -1.24883375466216
H        16.41822736130164    4.67473788274388   -1.74577243113375
H        17.79693478935961    4.24505639893708   -0.73694381363466
H        17.98293155479062    5.45235513273931   -2.00587750695007
C        16.31994313920550    7.33821055382971   -1.08494963751070
H        15.44100256661889    7.01580090287192   -1.63828928585757
H        17.05799599952780    7.69166448982866   -1.80233156892285
H        16.05135344545863    8.17257722839367   -0.44144440163906
C         5.43537074903653    6.06435214590952    5.73270667655901
C         4.42494609407900    4.94106444472643    5.45900112240494
H         3.40977593297705    5.30875512970777    5.59443909967078
H         4.57423253536642    4.10008702031873    6.13018274240338
H         4.52999567877483    4.58354687659597    4.43685707697963
C         5.30267687628820    6.54093988594630    7.18633210202966
H         6.03015206337400    7.32310010511147    7.39211275458880
H         5.46979573272385    5.72842828371956    7.88774382758099
H         4.30565350973733    6.94100779078504    7.36014570673839
C         5.09581053493278    7.24199265086908    4.81496266150453
H         5.14874275279026    6.94982681179656    3.76879021213292
H         5.76935142977011    8.07820249269035    4.98732915768260
H         4.08159925004030    7.57993788308420    5.01842371109932

