51
CSD_code = OTUTII | q = 0 | S = 0 | Stoichiometry = C22H20N6NiO2 | MND = 6
C         1.39837173781773    0.38209156155402    6.62710355836728
H         2.14975595783535   -0.07601491244309    5.99669988531525
C         0.18504057851644    0.79841498646871    6.10287481551837
H        -0.02659902123751    0.67217217738061    5.05292121123886
C        -0.74441310731838    1.37743364693948    6.95735127761637
H        -1.70165361379221    1.71311359599990    6.58430335385890
C        -0.42351593135394    1.51611913791172    8.29036913321188
H        -1.11402511021097    1.95998565157993    8.99096780619419
C         0.82634233523794    1.07033650842757    8.73973762650602
C         1.25056192154035    1.17451665963772   10.09832575325603
C         2.11240632389419   -2.73160161071468    8.56197424106520
H         2.23188626216330   -2.34736700901778    7.55723191653608
C         1.50854287799438   -3.95895870824248    8.78154589268574
H         1.14531614934090   -4.54103475444878    7.94883277620663
C         1.38416865516386   -4.41818743603645   10.08244882322001
H         0.91880288555737   -5.37074415080407   10.29123493776125
C         1.87169977545665   -3.62632115361438   11.10909658766705
H         1.79845409254999   -3.94198952849783   12.13824732762893
C         2.45813067787889   -2.41147568550911   10.79378064171118
H         2.84291926964714   -1.76612187098210   11.57272175828339
N         1.72049852301427    0.50843253411800    7.90356415586462
N         2.43193474861834    0.73278622597546   10.41920368952879
N         2.57766189973268   -1.96824530947937    9.54603832656093
O         2.85698540421769    0.80426088922960   11.59841241990130
Ni        3.45614934322472    0.00004151898369    9.12484412111749
H         0.60881482836483    1.61526333118997   10.85517331945703
C         5.51384815163367   -0.38213267916407   11.62270016868463
H         4.76238593757192    0.07581367646415   12.25313320567920
C         6.72720043877915   -0.79841700481991   12.14693168956167
H         6.93879929290366   -0.67226702781968   13.19690430107244
C         7.65666290708455   -1.37743911724365   11.29246421867926
H         8.61388145523828   -1.71316837237008   11.66552461973712
C         7.33576138215009   -1.51616711275241    9.95945715885576
H         8.02629232843319   -1.95999940321106    9.25885684123104
C         6.08588869822881   -1.07043592696671    9.51008964660473
C         5.66174244862974   -1.17455899361208    8.15148712633644
C         4.79988104001782    2.73159167035629    9.68792070210332
H         4.68038794943029    2.34731209549453   10.69264281934400
C         5.40370747009314    3.95897080835098    9.46840930425824
H         5.76691862509841    4.54101287763408   10.30115051680071
C         5.52805038702794    4.41826587031120    8.16752782303737
H         5.99339842830505    5.37083654039326    7.95878583655750
C         5.04052215795336    3.62644726957600    7.14084225523006
H         5.11375972542414    3.94216096761430    6.11170747167262
C         4.45410541051506    2.41158912759302    7.45610221682076
H         4.06934175415283    1.76624990088588    6.67713915670194
N         5.19170777575805   -0.50853960979449   10.34624504110283
N         4.48033267018950   -0.73299637805214    7.83060800935126
N         4.33461263408829    1.96829928407999    8.70381944871389
O         4.05549695766681   -0.80420018320003    6.65132337534903
H         6.30357650977222   -1.61513457535357    7.39462169023535

