50
CSD_code = OVABUK | q = 0 | S = 0 | Stoichiometry = C24H19FO5Ti | MND = 12
F        11.04511322981510   -1.73225536186379    6.93527980878459
Ti        5.08225865981877    3.38635959400293    4.91396842970328
O         6.48890174135671    2.27817870487092    5.39356101646556
O         5.99597635390254    0.66038544203423    3.98702728418965
O         5.74606135500415    4.45128108915126    6.28163438123256
O         4.27876254648079    6.05398431287563    5.97049283244283
O         4.24127946409552    8.08564642623286    7.59897768329841
H         3.98870648914476    7.51245583843040    6.83381461701756
C         3.59075244264435    2.83786720327482    6.72721306588091
H         3.77620869405572    3.04187204667679    7.77527620477799
C         3.93381122970057    1.64914826194482    6.04649487370104
H         4.41140482141659    0.78342188143519    6.48860401159863
C         3.41861223501566    1.73200556191256    4.73541857186603
H         3.42819239511586    0.93156916371506    4.00808566836039
C         2.73631583141741    2.96350014614408    4.61681008301993
H         2.10895715531688    3.26186911957368    3.78686495162651
C         2.84269906796382    3.64419193359584    5.84329865595549
H         2.34010626879866    4.56624890225090    6.09838004124861
C         6.16707281996450    3.23363044904635    2.73539613703923
H         6.65815421072297    2.36699078161424    2.31630775337611
C         4.80811066577216    3.55895542789840    2.58118848898200
H         4.09924090186024    3.00381569810853    1.98005787632675
C         4.59640814045684    4.83810030450230    3.15757141870354
H         3.69647091470966    5.43580329585884    3.08497418878856
C         5.83311969837181    5.29421974272210    3.65486682703873
H         6.02954884931223    6.28096699189692    4.05243070316293
C         6.79776023777115    4.29169555000513    3.42377688545670
H         7.85597301997119    4.36805088562911    3.64200689349755
C         6.70423261422310    1.11624711291892    4.87760449955066
C         7.86640029488286    0.35972628130948    5.43341104208412
C         8.65211869738726    0.91764126719642    6.43851870865577
H         8.40646800011086    1.90326136830643    6.80791026973790
C         9.72671944949474    0.21551275409399    6.94877195166640
H        10.35217635413858    0.62383906127354    7.72691085970122
C         9.99812773865034   -1.04389824761333    6.44021518978098
C         9.23087454792665   -1.61977659772781    5.44145841001767
H         9.47912699147842   -2.60347545580105    5.07562869028155
C         8.15908421040805   -0.90811009586642    4.93880913849419
H         7.53364273051490   -1.31669017057984    4.16010326480712
C         5.21765836248915    5.56966109825656    6.62640007635990
C         5.76921298691502    6.24337124937644    7.81822570209012
C         5.24306140860982    7.47790988863351    8.24282108064600
C         5.78765188454788    8.08707085829231    9.37660083376464
H         5.37663364329820    9.03296442593896    9.69212992564828
C         6.81955966867282    7.48764994262030   10.06475443803845
H         7.22817180193853    7.97250721099139   10.93894500692644
C         7.33902327906003    6.26664670672590    9.64623276993198
H         8.14687637677180    5.80600635656194   10.19352329686605
C         6.81482916480491    5.65281197011675    8.53111525786869
H         7.19497035369610    4.70346362143242    8.17943023353152

