53
CSD_code = OVAHOK | q = 1 | S = 0 | Stoichiometry = C23H24ClN4Ru(1+) | MND = 9
Ru        8.21835046008434    3.02739474478804    9.08435906110847
Cl        8.03069107727538    0.74345835772524    8.60480576446155
N         8.22578224227130    2.38710960869125   10.99526702414417
N         5.97907049863053    2.55874134152002   10.79100063454562
N         5.10101478498771    3.20779790647444    8.95647689632639
N         4.08523501068747    3.01605057727003    9.82334606915220
C         6.28919996106502    2.95891232124976    9.51268273138946
C         8.58090319604285    5.25627366108140    8.70293025095609
C         7.03728162815972    2.18256671844953   11.60167010537186
C         9.69836270224460    4.70972642192730    9.37079846097989
H        10.05758939503460    5.17684789720455   10.28167278325792
C         8.21203858360130    4.67584109225961    7.45887208369897
H         7.40510493016981    5.11967265955038    6.88476623776846
C        10.46408014397917    3.66732368450986    8.79149566075806
H        11.39188856161273    3.36322914910685    9.26336961594641
C         4.84264328729856    3.54842281232696    7.61303759811291
C         9.32954272273984    2.01879185801418   11.64903000827612
H        10.26870903857838    2.15197183802708   11.12941929874245
C         4.61645171368853    2.61569305565188   10.92451617585776
H         4.06406508732323    2.36933320394788   11.80706886811707
C        10.08538714342029    3.08536386133019    7.57905557461366
C         5.57206162885094    2.92307382256509    6.60906279191712
H         6.30008313226551    2.16649652180528    6.86992350047945
C         9.29575378384149    1.47433544700390   12.91783954752942
H        10.21513101715090    1.19218857791062   13.40349594552485
C         8.91788227825365    3.58932020903230    6.93239679583681
H         8.64643481655751    3.19283915815072    5.96002440044824
C         6.91465668929138    1.64357010749072   12.87361817943032
H         5.94061959434351    1.49502970539534   13.30975895249497
C         7.86362228116752    6.47878280702325    9.22400115179851
H         6.95052538919035    6.61292682761913    8.63293325446597
C         8.07022136106726    1.28617663153985   13.54622157147852
H         8.01632211501968    0.85689993762144   14.53328302738184
C        10.87298965903879    1.98755516728373    6.94513977197455
H        11.04183656450853    2.19997537222680    5.89078664785585
H        10.31262948779477    1.05188246448155    7.00777626142205
H        11.83052420828965    1.84734402686397    7.44054576232920
C         3.84771047595230    4.46860352655472    7.31470908314807
H         3.27709291287015    4.91557226856988    8.11325099635409
C         5.31607633459012    3.25265224847942    5.28997857086812
H         5.86668357895019    2.76635366139114    4.49963775422376
C         7.46299187400059    6.31706030951281   10.69206248080627
H         6.81445704186824    7.13597540587769   10.99007797707394
H         8.33284265142654    6.32497664222744   11.34409576007129
H         6.92495580632052    5.37807633259326   10.83749383243696
C         3.60167082744700    4.78587767355728    5.99029664668846
H         2.83039124853437    5.49924967671402    5.74618341653574
C         4.33816900113736    4.18598418264432    4.98115355740939
H         4.13961328974689    4.43473226737007    3.95038691062801
C         8.75084213073004    7.71339732754127    9.03079717052638
H         8.22104148924350    8.60293305882445    9.35926302671745
H         9.01308647013711    7.83659458485746    7.98275705872270
H         9.66778869151797    7.62694127816026    9.60880729183158

