118
CSD_code = OVALUT | q = 0 | S = 0 | Stoichiometry = C60H45IrN6O3S3 | MND = 6
Ir        7.32552341733296   12.47943199970879    4.24809419383157
S        11.44549399471197   13.72652758148717    2.96696439584112
S         6.48932383962587    8.21967984421929    3.09633326058493
S         6.63017664891035   13.13390391937872    8.63647125417782
C         9.29835700901461   12.91827717761412    4.21947930248819
C        10.34864167351518   12.98817076977823    5.16858757279556
H        10.22543722837561   12.73552824648477    6.20755622226972
C        11.53485626566828   13.40276292336986    4.65028434379207
H        12.47398926158699   13.54017311078069    5.15149781322658
C         9.75025919248884   13.29487058337201    2.95969730635972
C         8.83801057857034   13.29692770997642    1.86033200437527
C         9.11302878785318   13.57135807723460    0.47894799206583
C        10.37747610458098   13.88158004576103   -0.04678222206907
H        11.23081093684864   13.93608203962321    0.60767250985398
C        10.53827376560641   14.11159896256043   -1.39057214675795
H        11.51826231066670   14.34800088370317   -1.77833684392517
C         9.45189918020035   14.04237185479299   -2.26706316817032
H         9.60102194999408   14.22704320563155   -3.32070382943755
C         8.20488637016469   13.73424865217124   -1.78728469203643
H         7.34953454569933   13.66671648909334   -2.44162967327965
C         8.02401965025556   13.49494889763030   -0.41910111091408
C         6.75708907400130   13.13093702757012    0.13892517981199
C         4.51444367470614   12.52595528905232   -0.22547603316960
C         4.40019147294020   11.17487821230702    0.09653949780673
C         3.14691448013335   10.69700899026322    0.45577479815126
H         3.03424683590061    9.64992023282045    0.69368265309525
C         2.04933708590338   11.53554808481370    0.50209800830566
H         1.08404606092656   11.14220421774184    0.78348699303980
C         2.18443315859089   12.87319268746487    0.17801480064065
H         1.32457764395221   13.52651205827505    0.20467328704591
C         3.41747985486523   13.38571998157416   -0.19636571440774
C         5.58462302592554   10.26202908274409    0.04008304379855
H         6.22545262112070   10.43173267265357    0.90578036599798
H         6.17582001176981   10.44807590989674   -0.85597345376362
H         5.26687522658939    9.22257315001898    0.04757645115256
C         3.60052892727021   14.82229125556045   -0.57879651357675
H         3.91896712954837   14.89258809129595   -1.61856071518079
H         4.37842082313615   15.27610154727222    0.03375544079526
H         2.67407060894530   15.37744261977601   -0.45646057776517
C         7.51944495508884   10.52352218584790    3.77722923702937
C         8.59063949858795    9.62057161853405    3.56327014777302
H         9.62568974587044    9.89134299214025    3.68053700257470
C         8.19606227764603    8.37263185086683    3.19661117001579
H         8.80306493530909    7.51526241198123    2.97634529752181
C         6.29821861562455    9.89588470555364    3.55914816127157
C         5.09078526159846   10.64210136768570    3.72274081496667
C         3.73735642345510   10.17875078541115    3.61370992177609
C         3.35766765370538    8.85780671220417    3.32627834052788
H         4.11237823831846    8.10809232689672    3.15932600221900
C         2.03092713707018    8.51163487897144    3.25810912014465
H         1.75619303652532    7.49071823185287    3.03686370981381
C         1.02797713148201    9.46136327093318    3.47197965518565
H        -0.00942986948658    9.16681648207225    3.41327260270196
C         1.36485190575421   10.75873527712880    3.76090942501398
H         0.61204955783225   11.51144119443746    3.93738411580900
C         2.71373061744598   11.12842269109536    3.83662976556718
C         3.13307244298544   12.45457694958831    4.17327922718966
C         2.57600978041827   14.59692166766889    4.93810773568076
C         3.02745076862446   14.68774588689780    6.25333166420042
C         3.30147610799257   15.95087629362100    6.76026239292456
H         3.63628678832604   16.04364837446543    7.78250210499305
C         3.14485012897325   17.08137120735096    5.98082327281186
H         3.36270502160927   18.05423553549092    6.39520380515903
C         2.70247001740493   16.96811412151066    4.67537949608323
H         2.57598795909803   17.85269961622031    4.06827776315548
C         2.40493285349550   15.72479274837183    4.13770986521032
C         3.20132303225946   13.46477594981654    7.09847969394202
H         2.37054668629718   12.77393326063798    6.95930976436619
H         3.26931903531589   13.73303205784105    8.14959293756447
H         4.11912459706812   12.94771975727474    6.81648623853597
C         1.90212871028223   15.56109588788024    2.73655024739039
H         2.57339467699772   14.91457751403009    2.17231413556028
H         1.82328773547604   16.52346777491223    2.23731842023962
H         0.92156753392986   15.08628552830830    2.74585453652630
C         7.15600948821466   12.21879098624282    6.24532433340169
C         7.20716756064438   11.12460263439136    7.14469913228172
H         7.43276858729918   10.11737111716935    6.83971445923884
C         6.94705711702376   11.45877387790122    8.43628851275317
H         6.92177772539270   10.82344949565190    9.30103430106415
C         6.84955034477328   13.39466588388823    6.92075492420743
C         6.75346250780668   14.61693235719926    6.18750668204203
C         6.54122518465104   15.94245135663120    6.69421167033567
C         6.38119003290181   16.27272070416710    8.04954084728309
H         6.40059458053974   15.49653789186623    8.79562921482073
C         6.20320599246553   17.57841860758773    8.43427231453642
H         6.08323942771253   17.81495917163650    9.48132767180425
C         6.17663242469147   18.60907741399487    7.49064305504237
H         6.03607071693049   19.62939390482960    7.81574302021072
C         6.33446494219127   18.32137232449980    6.15929919522778
H         6.32381282955542   19.09705389181759    5.40920655789956
C         6.51896458882657   16.99457388337581    5.75004491757076
C         6.72991393195272   16.63143238081379    4.38212092155683
C         7.15211816032006   17.30341248848994    2.17812068827735
C         8.48693567375015   16.99940975968484    1.91778260186109
C         8.86137710450125   16.79944261873524    0.59589960183899
H         9.89393979892765   16.57703570046048    0.37210586742704
C         7.93776727832209   16.88949579288593   -0.42827969411148
H         8.25059478183591   16.73115681131316   -1.44942099219648
C         6.61749093038415   17.19138892330865   -0.14760530315422
H         5.89814768654776   17.26952487779181   -0.94983345984085
C         6.20724755857090   17.40915624436368    1.15920588028414
C         9.49006825162540   16.90526008789347    3.02453594748961
H         9.37524234709659   15.95636721468876    3.54939754756983
H         9.34815193310576   17.70786125873072    3.74744438143737
H        10.50111808380100   16.95695389331152    2.62886469835841
C         4.79282626285484   17.76063148124273    1.50497887648201
H         4.38364400269676   17.02373578357096    2.19520002237434
H         4.17346734067518   17.80281031405386    0.61272473841043
H         4.76136656265532   18.72926641850296    2.00283594640633
N         7.60425650432708   12.95644621817657    2.24461665757132
N         6.59234781823415   12.87472207758251    1.40525242472092
N         5.34038124182904   11.91413600358461    4.04752412781518
N         4.38691328669413   12.79342516997786    4.27102081689876
N         6.93566456567446   14.41936180361741    4.87828429418549
N         6.92682751658755   15.40146384544793    4.00154669795652
O         5.71599274805870   13.04792563115364   -0.70178242684651
O         2.18046945322511   13.36842146877450    4.40829564732113
O         6.73499369786965   17.61602702802463    3.47169289185850

