77
CSD_code = OVANOP | q = 0 | S = 0 | Stoichiometry = C33H29BN10O3Zn | MND = 4
B        15.23985386503278   12.59435084047992    9.26413609314529
H        15.59456419343696   12.76085129534972   10.37591723416049
C        17.92131059727868   11.21866023887882   10.28401713798528
H        18.15564600772576   12.26244742621082   10.48171005854187
H        18.83228579549229   10.62931803888820   10.32372803946191
H        17.23083979167236   10.86989957404004   11.04899423980679
C        17.32436686663873   11.06777101350722    8.93809786932389
C        17.01237719482328   10.45903991266551    6.93912313407947
C        17.23673945572935    9.78016826657325    5.67620667932132
C        18.34545173102195    8.93863092549853    5.56790690052705
H        18.99322494944729    8.82553608304491    6.42276516195928
C        18.59687771385008    8.26939778177127    4.38663076970210
H        19.45544820097247    7.61904750172688    4.30895625959873
C        17.74821346402733    8.43093726112899    3.30259116112342
H        17.94500320182215    7.90703200616417    2.37887344648722
C        16.64743998836892    9.26645706380730    3.40532832108791
H        15.98651999558086    9.39401093300214    2.56113000173894
C        16.38696277216827    9.94106981076312    4.58358563649151
H        15.52894233285600   10.59159362634512    4.65091518111388
C        13.19179510003075   11.89883300639608   11.64416116763901
H        14.04839456896431   11.30771014739921   11.96092841287309
H        12.30786111872443   11.57644441804531   12.18585277762716
H        13.39360108993566   12.94377019070327   11.87057094935080
C        12.94680785341180   11.71863921821884   10.19585001613583
C        12.01366316825168   11.25142200900035    8.36085466798495
C        11.00499985730593   10.84534135470817    7.39941438302660
C         9.66019110840326   10.93210356000363    7.75648796614799
H         9.40608950394923   11.27627509213027    8.74689613213444
C         8.68049352752291   10.58897346903080    6.84528466170101
H         7.63942325805170   10.66236840069451    7.12223452199240
C         9.03181749933466   10.15685204336231    5.57609164687631
H         8.26425101752776    9.89731914961741    4.86243097691723
C        10.36791314733883   10.04951857719784    5.22515745874857
H        10.64312661835806    9.70204313492837    4.24088005132006
C        11.35485546570537   10.38383308090351    6.13274410308944
H        12.39612954974541   10.27399347710564    5.86645796857013
C        15.49359093744942   15.63143685940657   10.31110970399399
H        16.42814571870983   15.20369109015299   10.66705702434929
H        14.69293010015525   15.30688320898236   10.97315330250828
H        15.55701322822369   16.71507738700393   10.32991175002888
C        15.22044439307356   15.20054795407179    8.92198646228651
C        14.80138005970950   15.24060865910849    6.85471017420885
C        14.50494254038485   15.70969358347726    5.51171040407175
C        13.70082263021290   16.83320329426619    5.33792337035800
H        13.34041819894160   17.35936881940973    6.20822037773624
C        13.36004132439282   17.24643936290974    4.06425369609900
H        12.71883637830046   18.10433359545704    3.93048573175465
C        13.83350894773680   16.55610782577498    2.96003913953340
H        13.56099676893798   16.87661536471012    1.96570911656911
C        14.66086692186409   15.45798631907355    3.12967649227614
H        15.04202033101753   14.93071397338104    2.26848312097758
C        14.99523912714092   15.02920282815436    4.40023711209971
H        15.64600622374697   14.17640764011366    4.53551640828930
C        12.92966104213421   12.75211682870333    4.20565582238244
C        12.07315972428364   13.61838675849041    4.91181668114452
H        12.13283161275210   13.62765862008480    5.99362705340817
C        11.20391215658902   14.44801451065465    4.25503774647229
H        10.56373707009379   15.13110830774366    4.79207088303377
C        11.14724627817259   14.42597428841812    2.86097003336443
C        11.94449795710501   13.53507034954916    2.14006482037643
H        11.86808668218729   13.52449466479117    1.06322683111416
C        12.81435485486257   12.70763871973514    2.79968333917507
H        13.44914825814468   12.02433142581375    2.25735942299337
N        15.99627163579375   11.27120527793881    7.22994761413207
N        16.19766252730319   11.66069293167397    8.51433868348957
N        17.84582678278911   10.32040149595997    7.98512108984309
N        13.23507101016605   11.67680609073161    8.04508526328398
N        13.83340641334143   11.97602879353472    9.22241974209088
N        11.81163559608791   11.27342778394320    9.68873252306912
N        14.88835027284521   13.95328846172640    7.17897878512438
N        15.15999568356712   13.92688108769447    8.50483131356923
N        14.99752388995369   16.03292700265242    7.91962617836212
N        10.29394231982383   15.32684849153849    2.17611994542351
O        13.81712105983395   12.00634582785327    4.80239612981171
O         9.61709567761992   16.09661030743747    2.83820254243533
O        10.28673838781051   15.30014179396493    0.95629928415382
Zn       14.38933770622247   12.16742248461322    6.51649369683984

