70
CSD_code = OVANIJ | q = 0 | S = 0 | Stoichiometry = C29H28BN9O2Zn | MND = 4
C        -6.27858285137332   12.71175266960813   14.55781233008014
H        -5.80322620545642   12.95741309176694   15.50555303201176
H        -7.33088525563002   12.50532499371798   14.72809020303715
H        -6.17542308648750   13.56438134580518   13.89073352427398
C        -5.65452106030038   11.50737016508426   13.96398186348456
C        -5.37232933849128    9.55017709097385   13.23086722822450
B        -3.22928165522389   12.42007604601251   13.63947798807346
H        -3.60547754163437   13.45320082639910   14.06845253108981
C        -5.66390011559476    8.16644504312462   12.88913323469262
C        -5.14972412233981    7.57933159161196   11.73754217455793
H        -4.54317981770405    8.16469486025580   11.06609563538770
C        -5.45055584571566    6.26148209389246   11.44512868687262
H        -5.05051714282657    5.80707243600835   10.55058055451111
C        -6.26783657360939    5.52681483726199   12.28817569833398
H        -6.49884934004958    4.49748306675421   12.05557294333944
C        -6.79900492556714    6.11660292690963   13.42421729915387
H        -7.44572704023589    5.54794523385141   14.07617017204453
C        -6.50367573751634    7.43238356482481   13.72432595695124
H        -6.91216267862741    7.90655078800882   14.60337719846883
C        -3.26468370761893   14.91262849586739   11.59607945090143
H        -2.99063472377312   15.37536448348517   12.54162128409827
H        -4.33926660145052   14.73972450295903   11.59706015072711
H        -3.00820323606550   15.57682992209422   10.77660804385550
C        -2.54087884011120   13.63411775508771   11.41362936125280
C        -1.33431319913430   12.10679184689098   10.60435761615395
C        -0.43811744083927   11.36734455000891    9.73531165921480
C         0.38250400303634   10.36973743510328   10.25661548318293
H         0.37760629471390   10.17179375753074   11.31951908659367
C         1.21069306105917    9.64972687446665    9.41659136256786
H         1.84508846522095    8.87534613233891    9.82340210238606
C         1.23264171754433    9.92272735739907    8.05769034610275
H         1.87928568128775    9.35535199061266    7.40402332377493
C         0.43078977795028   10.92709747322480    7.53957395592435
H         0.45369945485542   11.14319252603258    6.48156900226201
C        -0.40100391220910   11.65075125958691    8.37280383635335
H        -1.03527685778296   12.43310590829203    7.98660735277139
C        -2.13800272346607   13.46001065489054   16.43778033941658
H        -3.20727229424992   13.47969503229941   16.63790063886032
H        -1.88992906987743   14.31058763854975   15.80661421628022
H        -1.59420922750493   13.53310434775439   17.37474991065744
C        -1.75597097631599   12.19260759430800   15.77331842785274
C        -0.83754722217344   10.33367275514368   15.37426034526297
C         0.03100724579798    9.18788074492663   15.58486412917044
C         0.44870988247888    8.36247574808453   14.54513930831982
H         0.10666622776417    8.54471061526051   13.54088953951890
C         1.29892824644282    7.30332048151021   14.80478511046513
H         1.61696986988685    6.66514592097634   13.99365350413661
C         1.74426165842152    7.05960106412108   16.09351675661936
H         2.40940886550322    6.23102936943743   16.28932099389304
C         1.33684470556253    7.88325099169172   17.13120196279828
H         1.68350903244441    7.69736409781085   18.13733583316095
C         0.48792982458351    8.94308269302424   16.88093485843773
H         0.16457655830107    9.59628766437241   17.67623771389419
C        -1.90809884970887    8.20328648840024   10.88422583319958
C        -1.50803287710924    7.12223616927249    9.91078736342985
H        -1.17038624371849    6.24293380107106   10.45003593299863
H        -0.69916080334730    7.50524256514501    9.29122234035764
H        -2.34832855107045    6.88184522451278    9.26594789052289
N        -4.20953560976132   10.17000103374484   13.04929734167216
N        -4.39252349318699   11.42538356646501   13.51887770645445
N        -6.28232001882873   10.35694803758171   13.80159748227503
N        -1.79749473982096   11.62759973808384   11.75248168347732
N        -2.56831786889391   12.60346479628114   12.27305923593901
N        -1.78312806749606   13.35152173837731   10.36848551555799
N        -1.61922041917450   10.57548730900893   14.32422848057457
N        -2.20431376870666   11.77171701157792   14.58060494771438
N        -0.91200878214115   11.32114938232780   16.28753388401472
O        -1.51487319098123    8.12643091467532   12.07947040983047
O        -2.60906672629635    9.15994836818238   10.51646591334979
Zn       -2.30564019565535    9.86324149827838   12.50612277717628

