77
CSD_code = OVAPOR | q = 0 | S = 0 | Stoichiometry = C32H32BN9O2Zn | MND = 5
B         1.69315627562182    8.83775543751167    2.24251871750303
H         0.68132422155710    9.14934624889728    2.76548149437692
C         1.91059591215133    9.51926558317390    5.39535767793362
H         1.80475128341012   10.55428704758305    5.07433746563496
H         2.23108259764581    9.49984744739833    6.43256124852539
H         0.94465828251781    9.02908948983685    5.29813205015840
C         2.92967411084908    8.83047988101157    4.57054951111206
C         4.70179795785254    7.87390458863086    3.95245825466317
C         6.04003165750265    7.31119737564278    3.95151287559005
C         6.99958224668973    7.81960182096512    4.82307101045930
H         6.71711464710425    8.60254311838902    5.50954578853638
C         8.29111290181368    7.32963670878349    4.78991036208199
H         9.03663835686584    7.73086210935802    5.46113503167184
C         8.63230723296452    6.32790675968127    3.89497811906913
H         9.64423510442857    5.95027125667205    3.86664073480928
C         7.67370830189242    5.80532142307627    3.04209555898576
H         7.93557636674884    5.01515178066613    2.35394445279808
C         6.37947372821013    6.28953951996756    3.06896909089258
H         5.62649399946990    5.87431893124938    2.41564061624793
C         0.68301277905522   11.86928336681772    1.84544945300950
H         0.61249793520844   12.90113492424008    1.51505367613445
H         0.78932204657976   11.84175198280540    2.92797448624445
H        -0.22814813664510   11.33828416514377    1.57771073217134
C         1.85559435342847   11.24277711204924    1.19249923938518
C         3.57431828650268   10.94380847106627    0.00953731723987
C         4.68965135060127   11.18751616828038   -0.88667956660024
C         5.14007388721589   12.49168308091734   -1.07987122202048
H         4.62807903595672   13.29703239021176   -0.57658252901864
C         6.22820303409455   12.73480197311488   -1.89591882016065
H         6.57802937603651   13.74666202450295   -2.03974109963768
C         6.87468486988996   11.68293993608214   -2.52515831872354
H         7.73017198861309   11.87396510606741   -3.15667268596105
C         6.41910225441679   10.38601310150404   -2.34921674999607
H         6.91696703577605    9.56564391846936   -2.84540841863370
C         5.32720929708863   10.13603066412488   -1.54046402292547
H         4.96244460770289    9.12647662613203   -1.41641460654784
C        -0.73744590052521    6.76136791515525    2.06774541605939
H        -1.36650950496729    5.92666919871380    1.77388154507488
H        -1.26077714773810    7.69603411395586    1.87697876499172
H        -0.52452121440334    6.69823250597022    3.13318505964683
C         0.51992631634139    6.70331225350384    1.28717226948155
C         2.02082484692630    6.09645770090885   -0.06064386863488
C         2.70970007630375    5.36998647617957   -1.11533884704798
C         2.61215197356149    3.98370050416749   -1.18421681561203
H         2.02715152571531    3.46195405920374   -0.44250396969435
C         3.26442232312145    3.29377686160110   -2.18911319983922
H         3.19404603694164    2.21671671092103   -2.23635968358323
C         4.00734189794824    3.98101317416083   -3.13538581473710
H         4.51795733393154    3.43980078423343   -3.91897192797598
C         4.08824720261769    5.36343037681851   -3.08159998858030
H         4.65637504098318    5.89995722505666   -3.82776326181980
C         3.44164883334966    6.05902762438062   -2.07784281321362
H         3.48525148097686    7.13672636530986   -2.04020704812111
C         8.26241854181657    9.73049452076315    1.39312652487196
H         7.83536073202840   10.62893740421505    1.82977335714099
H         8.90299613271924    9.99585094579186    0.55637941459520
H         8.86454711329962    9.22169039009847    2.14406316030278
C         7.15351723253225    8.80706417804434    0.94046390375414
C         7.51125531467119    7.70205244611313    0.16132623145652
H         8.55086350471499    7.56846664849176   -0.09145073995185
C         6.59382818023319    6.75388344615205   -0.27607058740927
C         7.11102790184252    5.58898809688558   -1.09371862968479
H         7.97694038772769    5.14131315525157   -0.61327167288401
H         7.41353783833927    5.94136518413633   -2.07789384213521
H         6.32521687344777    4.84782576531321   -1.21189508921656
N         4.10801977735635    8.43403809770067    5.02088601149917
N         2.79259648063483    8.52943795594357    3.27098575138047
N         3.92473261114297    7.91449618609928    2.87717242480524
N         2.67172824229531   11.87616841799565    0.36910233884349
N         2.23271895722102    9.96324282747044    1.34589973834548
N         3.33047427189287    9.77600100462636    0.58824752190142
N         0.80184539124005    5.76331366490541    0.40285024987337
N         1.52652466890252    7.58667127932228    1.37893245604319
N         2.49194578627979    7.18942161940464    0.52280012963926
O         5.98314427844423    9.07979426773139    1.30431667227558
O         5.34871322864637    6.78308996475005   -0.05053984813552
Zn        4.31472624468828    8.06119714267319    0.92426178129831

