89
CSD_code = OVAVUD | q = 0 | S = 0 | Stoichiometry = C41H42AgClN2O2 | MND = 2
Ag        6.50788793127450    4.56049075938960   -0.25723737631020
Cl        6.63883281213810    5.11001486573273   -2.44663304344181
N         7.01772661195761    4.11652138792200    2.83611065844929
C         8.09337167735083    5.08744466438071    2.93058956664832
H         8.88625587590725    4.61693961243665    3.53063373117810
C         7.60560310527990    6.31897505693096    3.66030929676575
C         8.40153109317262    6.92049054242545    4.62502084116423
H         9.37563487734262    6.50794980181830    4.84922399709172
C         7.95917939274616    8.04841359521832    5.29416174382211
H         8.58682666613453    8.50872101123115    6.04280318239341
C         6.71458725068716    8.58175329400123    5.00698134527158
H         6.36792006372998    9.46006675025146    5.53060419182995
C         5.91627558269992    7.98713848460904    4.04380106246829
H         4.94792645165233    8.40417446060245    3.81049352879526
C         6.35934280013097    6.86193297677068    3.37292748324597
H         5.74220437152200    6.40620853497895    2.60961243140511
C         8.67802763301055    5.38550959366936    1.56181309283985
C         8.58062687884559    6.63450816731175    0.95975357526262
H         8.08596219045711    7.44665104194707    1.47225024033428
C         9.13982933936589    6.85079832122252   -0.29106485640180
H         9.05515760289349    7.82374416582177   -0.75073607916026
C         9.79532774960315    5.82734969448360   -0.95154748750910
H        10.21499653981850    5.99574504534219   -1.93095934715606
C         9.90676393766754    4.58251934093055   -0.35222592988552
H        10.43027480685144    3.78304563302780   -0.85500188494698
C         9.35755020406408    4.36403629123491    0.89935537285823
H         9.46662854770196    3.39879418956825    1.37624225186245
C         6.23216138392915    3.88202592505555    1.76325032761019
N         5.32317554120584    2.95882652387856    2.15128268967324
C         4.36685242942138    2.39026086665512    1.21514413791821
H         4.17738003304374    3.18547327658220    0.47107896483564
C         3.05397257480640    2.07031902945561    1.89184779937141
C         2.47702280607813    3.02948095921902    2.71933891558778
H         2.97306065381505    3.97892813743999    2.86203187031208
C         1.28278222794118    2.77266194664968    3.36542075843371
H         0.84978530271832    3.52230177848979    4.01110078864267
C         0.64072346449730    1.55883967391050    3.18078317732623
H        -0.29167668227203    1.35612070419234    3.68623706492314
C         1.19367503976143    0.61289530789447    2.33566329679816
H         0.69091039317588   -0.32934778240350    2.17555264023635
C         2.39330199953580    0.86639315529686    1.69115277192513
H         2.81742699246128    0.12348668618761    1.03247559216719
C         5.02792708712302    1.23895020232211    0.48842309908026
C         5.24910956569815    1.32370345618732   -0.88089547804083
H         4.90392050563585    2.18912570031787   -1.43370197119670
C         5.89968958005710    0.29988081071093   -1.54887729442006
H         6.06553534190685    0.37886136935383   -2.61224930455958
C         6.33855098943900   -0.81448816340284   -0.85482510257241
H         6.84743806545476   -1.61245439023090   -1.37489453245128
C         6.12818645557274   -0.90102919574344    0.51113895339507
H         6.47429813363496   -1.76507779264315    1.05955006650811
C         5.47968497316275    0.12106345667234    1.18102094154193
H         5.33089718387397    0.05104635915928    2.24849653603064
C         5.52019188903321    2.60190287477727    3.46576542218193
C         4.87038489446359    1.71634943891796    4.32373361089464
H         4.04191828229283    1.12106475929238    3.98312262713558
C         5.31166246207016    1.64161137894648    5.62898253485958
O         4.76885912289261    0.84223436859099    6.57947564722427
C         3.60149792085962    0.10911165355359    6.27223296455588
H         3.81533118472064   -0.63830869639356    5.49443112554272
H         2.81618924028013    0.78340527648616    5.90067523824632
C         3.14287647191453   -0.58241966746522    7.55206508579673
H         3.96570922184717   -1.19233631237538    7.92782344214562
H         2.30568582902899   -1.24083859603128    7.31317588671746
C         2.73207455568728    0.42613996366662    8.62234439491753
H         1.89517140173038    1.02360989606964    8.25284707995768
H         3.57134904336279    1.09887277687914    8.80365043640231
C         2.33380817847628   -0.26092130636195    9.92164273001972
H         1.49380462792043   -0.93292862894622    9.75785033735837
H         2.04454682335664    0.47409303981314   10.66883785363230
H         3.16453021755027   -0.84166814268589   10.31579259458238
C         6.40363824041100    2.43897841524109    6.08574080029623
O         6.70767917884137    2.26711860489338    7.39482382076644
C         7.70238181274924    3.07924472230597    7.98120082278227
H         7.45728818692639    4.14165043804277    7.83782329928901
H         8.67868443113307    2.87800407676942    7.51668960779856
C         7.75024872266584    2.74540445591404    9.46891515784081
H         8.58519408694537    3.28286219951532    9.92234944055661
H         7.93007362890972    1.67468630478267    9.57551108521315
C         6.44450674345674    3.11076175364691   10.17122473527621
H         6.27436518545521    4.18640674718743   10.08134154711945
H         5.62498973614864    2.59741421272410    9.66661605249694
C         6.46765921907500    2.71978060709884   11.64280186542495
H         6.61019571148816    1.64697259681676   11.75002058571171
H         5.53114025456772    2.99080277444298   12.12403469907264
H         7.27914506177958    3.22640883777852   12.16129059159316
C         7.05447273971091    3.30120787857075    5.22652224502116
H         7.87322913469200    3.91654091939541    5.55852260790112
C         6.60077252186471    3.36739509367138    3.91209372570721

