31
CSD_code = OVAXAL | q = 0 | S = 0 | Stoichiometry = C11H10F3NO5W | MND = 6
W         1.94722881147202   11.57751075414165    9.69771244426614
O         4.51704473043826   12.07252632644370    7.96513542792455
O         0.44584762557909   10.16538774621815    7.33471557122208
O        -0.73825553570172   11.45092476402428   11.32969571798374
O         3.30890031492850   13.46742139259388   11.80649691751248
O         0.86495931490823   14.21140483851543    8.38127783449241
F         2.13692980406150    8.69711808432692   12.66729806617935
F         1.97428981519983   10.82309632262791   12.68671048294627
F         3.91302197473025    9.93333228054369   12.80168377649962
N         3.47965549137163    8.81270610680328   10.18891879013606
C         3.60049949216836   11.82998901221555    8.60528681111496
C         1.01532012482159   10.58961579999107    8.23021638571121
C         0.24852535683138   11.45088758152051   10.76416562539081
C         2.82957762842361   12.73188811017177   11.08260364956431
C         1.24856735403446   13.25170263825007    8.86670632375247
C         2.79885405773374    9.82361100617763   10.66985295439220
C         2.71578622855676    9.82311569540091   12.18791692029057
C         4.28902918996887    7.84353034368696   10.92375046012071
H         4.19798572971055    6.87962106418700   10.41828221471020
H         3.93653444529873    7.71189237165459   11.94409924300960
C         5.75459725751303    8.27731778658323   10.94933612044610
H         6.15103906189747    8.39197409888158    9.94340665498030
H         6.34166668634496    7.52471308344790   11.46806577724176
H         5.86496458237530    9.22219988935668   11.47417269601610
C         3.48606345376824    8.55879058519357    8.75614932974085
H         4.45877826398476    8.15178407178842    8.47417822313933
H         3.33004267358431    9.49895455893482    8.22543280733535
C         2.37865058279929    7.57236883089795    8.39137257426686
H         2.55156039667101    6.59637216728345    8.83918239089691
H         2.33604866141543    7.45356026813289    7.31277446086509
H         1.41808642512106    7.94548242000517    8.73890334782749

