59
CSD_code = OVEPUB | q = 0 | S = 0 | Stoichiometry = C31H23NOPdS2 | MND = 4
Pd       -0.15007813903248    0.84469886444233    3.57325908981495
S         1.09091323274626   -0.28268254610877    5.44409013748388
S         1.23510622788661    2.47333683093630    4.47219973594522
N        -1.38793765619907   -0.54858107774209    2.84149305307002
C        -0.64523407027423    1.70171267910610    1.83484742994157
C        -1.36102556541750    0.83712753427561    0.98750622434200
C        -1.79048382882548   -0.36682418525250    1.62357638531890
H        -2.48675598801512   -1.06747704152756    1.16672192306195
C        -0.20986258049986    2.92662975181771    1.35032102866886
H         0.34644577815478    3.56659558105334    2.02232489700622
C        -0.48508353027377    3.35219793986447    0.05204600073101
C        -1.23511215429901    2.50503788450613   -0.81176999957119
C        -1.65652325991124    1.22475185737412   -0.35305437105289
C        -2.33831369708259    0.36936748545624   -1.23472548015655
H        -2.64282448177938   -0.61058886087868   -0.90391187494367
C        -2.61023194197007    0.76448296666116   -2.51814074717834
H        -3.12585151676861    0.09745458453852   -3.19363260177052
C        -2.23062366667892    2.02602866953607   -2.96199704697555
H        -2.46685303326118    2.29381566108318   -3.97868876728414
C        -1.55958591630404    2.91252484383807   -2.13504425011906
C        -1.17517471072703    4.24282139466116   -2.59010291486148
C        -0.38883029482807    5.06487174276925   -1.74053153932791
C        -0.01309542279880    4.63787390630133   -0.43764233657290
C         0.79277746710620    5.46892238121249    0.32667010504691
H         1.11442958586522    5.16854661510431    1.31020727160676
C         1.21898124186971    6.71055903906277   -0.14090080191088
H         1.84726826088841    7.32371203401975    0.48827679106051
C         0.83861941010601    7.15020528788238   -1.37926409696155
H         1.15230142078043    8.11672927262854   -1.74607473991345
C         0.03019524565036    6.34195465686975   -2.20194472096945
C        -0.36664878783093    6.78809842345516   -3.47751031727308
H        -0.04180953564746    7.76213117816286   -3.81323307406985
C        -1.15453645078362    5.99869521385662   -4.26872351490879
H        -1.47138046742696    6.34216202398682   -5.24268961259715
C        -1.55143474973253    4.73678013402250   -3.82878041853906
H        -2.17138079950744    4.15086567302794   -4.48775668513362
C        -1.82153199903788   -1.57384875005653    3.67193795423680
C        -2.04351733047595   -1.23488740685813    5.01213183702767
H        -1.88535400088551   -0.19319728304228    5.31959530338812
C        -2.47205058724225   -2.19073411642697    5.90616736035753
H        -2.64691704990931   -1.92262906398559    6.93798446886087
C        -2.67653001864681   -3.50608080666950    5.49570731381185
C        -2.44949007393146   -3.83563177152510    4.16532495991726
H        -2.59823954148287   -4.85486623169146    3.83844397238339
C        -2.03494292124214   -2.88479158103574    3.25190209890246
H        -1.84224415414851   -3.16044434336300    2.22520893726636
C        -3.07307297706538   -4.55902533356310    6.48883654363347
H        -3.70327020235971   -4.11860055118522    7.26400236761588
H        -3.64299423790631   -5.34526111998481    5.98984292485026
C        -1.82939488438662   -5.17094027425543    7.13775091612160
H        -1.19711111893636   -5.63188049568243    6.38240900245756
H        -2.11281924700975   -5.92856890026533    7.86450906857742
H        -1.25015088440574   -4.40181893396129    7.64325717723142
C         1.71414452964482    1.27421299601940    5.56225445165634
C         3.02531497218524    0.65591316257059    7.41254753962655
H         2.17888171346328    0.26839996868138    7.98547870479459
H         3.73195926876043    1.15699579337048    8.06947794058647
H         3.50933516282536   -0.17601252629180    6.89426564731527
O         2.59272995702565    1.63435916919589    6.48774334838584

