65
CSD_code = OVEPIP | q = 0 | S = 0 | Stoichiometry = C32H29ClNPPd | MND = 4
Pd        2.03257517275017   10.52805211923266   10.28170011108869
P         2.81189021535488   11.94736560885253   11.85427333347566
Cl        4.06548693099187    9.40483941508001   10.68743329485685
C         0.46043827168287   11.60736786162069    9.69045670354271
N         1.61724176375767    9.30557187483682    8.78590418482405
C         1.53518041234792    9.80158697738975    7.60110256920486
H         1.69692949761765    9.16999483589797    6.72428198238494
C         1.05335389072830   11.12768869711675    7.31941537741084
C         1.04200003128339   11.54543262602324    5.99549957215131
H         1.53765770365647   10.94374939155833    5.24619734575834
C         0.41155697403044   12.71466213450406    5.61438809910617
H         0.46647371952423   13.00536003248953    4.57794883159275
C        -0.33544421914625   13.45949051779254    6.51838951820027
C        -0.41557329068256   13.01925784739941    7.86883271458402
C         0.38884178997024   11.92699541114608    8.31067784751438
C        -0.42384549120754   12.23283808812053   10.54624974576260
H        -0.44192933486727   11.95672051379422   11.59508978465357
C        -1.30542814237977   13.21088696891569   10.10026513647060
H        -1.97867824225740   13.64896841210824   10.82039391356914
C        -1.28689812151997   13.66106970019444    8.78960327526070
C        -2.13371360716164   14.75432262027731    8.33583966829445
C        -1.96825030955064   15.25507116195024    7.01734779515184
C        -1.05066791470624   14.65740733896484    6.11235206099407
C        -0.87222725122605   15.23650427702434    4.86493579781227
H        -0.15137766587458   14.83346503583210    4.17193967409148
C        -1.60140851089770   16.35514302306190    4.46687983247304
H        -1.43179685365245   16.77485841748641    3.48604369680420
C        -2.53064604317189   16.90769143946769    5.30534619609638
H        -3.11616062177267   17.76202121935540    4.99778121870469
C        -2.73234122535772   16.37534826826877    6.59365271789158
C        -3.68048639814337   16.94209539037731    7.46741131477469
H        -4.25940301239837   17.78957150954604    7.13031950980821
C        -3.86047237343093   16.41930638930381    8.71869334264662
H        -4.59416161637977   16.84440024977247    9.38805698870363
C        -3.08858906009246   15.34225412307953    9.15085500871054
H        -3.25835700200431   14.97289608586497   10.14937384054635
C         1.84964954279257    7.96671968685920    9.08148226188432
C         2.42832632170751    7.04134740413571    8.21323572615566
H         2.75990169929823    7.34398837032958    7.23097148880125
C         2.63876807490294    5.74244969378870    8.63243715883475
H         3.10823265495162    5.03974665636317    7.95865176944351
C         2.27806457013290    5.32783798816211    9.90840834369825
C         1.69353600597492    6.25165169774099   10.77040468783226
H         1.41878668229566    5.94652127118870   11.76978158447650
C         1.48564622959533    7.55316339342739   10.37066263340957
H         1.03814020659472    8.29093538602019   11.05170481542306
C         2.47957027900537    3.90436147713022   10.33752299408334
H         3.34655899915318    3.48242313482950    9.82607484243678
H         2.66442254701778    3.86578293424535   11.41238483802982
C         1.24239761558572    3.06555441513733   10.00871690229947
H         0.36852460740859    3.46293539474441   10.51985574443055
H         1.38828516814511    2.03385285215813   10.32034810797516
H         1.04860569606173    3.08102201082472    8.93865326004962
C         4.32417768134880   12.72750438149743   11.18064894900657
H         4.77386432559101   13.39763604133631   11.91321979101650
H         4.05938728536880   13.28686551039745   10.28111433856549
H         5.02762376305874   11.93939656002339   10.91377705656282
C         3.39922391090768   11.21119047832895   13.42227344819467
H         4.07792216430396   10.39429159553999   13.18255870118752
H         2.54839718136088   10.81365013741779   13.97559329943198
H         3.90974854679692   11.96310039741910   14.02359870616973
C         1.92117096310052   13.43300018254978   12.47519457407742
H         1.08452599815780   13.13465185222615   13.10252758927027
H         1.54091375221289   14.01123261926326   11.63545453062621
H         2.60385746137513   14.04623089321079   13.06170985186983

