56
CSD_code = OVESAL | q = 1 | S = 0 | Stoichiometry = C20H21F3N5O5SZn(1+) | MND = 5
Zn        3.77570696778822    2.72737159452826   11.45171074864471
S         1.97068753887721    3.71232480975188   12.98647961158719
F         0.02928650903216    5.04287131972812   11.64996323493854
F        -0.42788792981701    2.96107335382696   12.00596158624847
F         1.09558887894130    3.50203083452334   10.57962435360458
O         2.99790703505727    4.45175909354179   12.24583185750484
O         1.57573015580405    4.24242564617901   14.23821119711295
O         2.29304788855886    2.29095241479024   12.91927553688135
O        -0.38697909796111   -1.25375172999751   10.24366810794975
O         0.99171644309214   -2.55068331330280    9.01999035947797
N         5.58849915800615    1.57481273949855   10.56916853331168
N         5.11430382207100    2.47699347160064   13.02987754514876
N         4.52066885970186    3.94089733387675    9.92057087130181
N         2.91078788074807    1.15997332737005   10.44287768305390
N         1.77376374757352   -0.61150539360683    9.84606425112132
C         6.07418931245249    0.73595879100708   11.65173384833003
H         7.10760422213928    0.40017135338370   11.48044937066131
H         5.43553693299001   -0.15076463710350   11.71059232908573
C         6.53004107225616    2.61564552179851   10.18960397846819
H         7.29994636997787    2.24170816146049    9.49976123511768
H         7.03314754973493    2.97803625603557   11.09102122700121
C         5.12391407400583    0.80187251966937    9.42135283153806
H         5.77486257675339   -0.05539815355364    9.20491250638215
H         5.11890809035021    1.45594152285929    8.54454600674401
C         5.97541039630865    1.46076684273662   12.96873220701723
C         6.73355868473964    1.06880002792422   14.06354295886607
H         7.41915178347445    0.24018372425147   13.97688740380379
C         6.58712875817074    1.75036236208157   15.26043215356679
H         7.15718604421175    1.46057476569413   16.12951731707977
C         5.69854851456856    2.81376099232995   15.31312667377656
H         5.55670597776974    3.37909225223714   16.21932306647053
C         4.98322680196906    3.14306898206682   14.17520743445094
H         4.28206404279170    3.96348224061772   14.17434085423868
C         5.79778907573329    3.77904166966312    9.57272760985124
C         6.44037268204179    4.64757011642576    8.70088074031867
H         7.47605395325256    4.48677230303142    8.44485340031712
C         5.73682723862085    5.71957371488388    8.17714786735896
H         6.21511317539593    6.41277751383860    7.50275235624589
C         4.40732279970650    5.87683011619873    8.53739739506406
H         3.81833867920254    6.69240497027827    8.15121693357806
C         3.84136293262345    4.96581357558113    9.41182028895618
H         2.81458379403117    5.05921429122939    9.72484226748496
C         3.72623188319137    0.35458060938170    9.68760400534577
C         1.75429683832817    0.55521449772291   10.52597359585021
H         0.89393908797150    0.89446227082460   11.06769966682534
C         3.03099085031351   -0.75163993815959    9.30843337891477
H         3.30123301658834   -1.60234974205211    8.71846122250043
C         0.65898806155423   -1.50245560140994    9.73257651334826
C        -0.03985599248710   -3.54206590004354    8.81429140289366
H        -0.80763467376587   -3.10663930274990    8.16790569084599
H        -0.49319335672672   -3.77712797774400    9.78167585971311
C         0.59599160564454   -4.76131254359818    8.17919593677284
H         1.04952167088733   -4.50034414769487    7.22713319865667
H        -0.16751945322760   -5.51400904881533    8.00986668362400
H         1.35960765252079   -5.17610587581905    8.83129598267729
C         0.54587941646335    3.83108540122436   11.77378912237719

