116
CSD_code = OVEVOB | q = 0 | S = 0 | Stoichiometry = C44H67BO3Ti | MND = 5
Ti       12.73935274535568    9.23592534160252   12.66341907939904
O        14.01886216547508    8.41202605047527   11.90265670722734
O        11.53800005871292    9.60845436834473   11.47924636685228
O        13.21887078629607   10.64467294034814   13.51661242194580
B        11.76643327189916    8.19487200264488   14.84480406963678
H        12.64345831183538    8.66122250784245   15.51715940965801
H        12.27190504679476    7.96634068570356   13.55603632809012
C        15.19881084464130    8.18876280901810   11.32156903361912
C        15.60414408616459    8.99514993807230   10.24159584116595
C        16.83925863618051    8.75895180992916    9.66071872608442
H        17.17266197308778    9.37512965563947    8.84059569194601
C        17.64969212832725    7.73385492009877   10.11379705533017
H        18.60725091447130    7.55793499631221    9.64720728035946
C        17.23401094635924    6.92759518395300   11.15879797861181
H        17.87553401940243    6.12622757233191   11.48910949025762
C        16.01592596756099    7.13931082771002   11.78423193687341
C        15.51096119870910    6.27986641547629   12.92403066817201
H        14.98674361101271    6.93763596360828   13.63370486425640
C        16.62206314165909    5.54809083061722   13.67387885107681
H        16.21794467518039    5.09866352191830   14.57860742999389
H        17.42049575649907    6.23128129778346   13.95587191371940
H        17.04386983878405    4.75161951797860   13.06491567058696
C        14.47942025944259    5.27514730655286   12.39694942342413
H        13.62602584148942    5.80573163523719   11.97703778284841
H        14.12672884287012    4.64003317613438   13.20703259487020
H        14.92134570539441    4.64655323498792   11.62553503294820
C        14.66610572480710   10.08678917716689    9.77626408612006
H        13.63915207303767    9.73336217810005    9.95717292730756
C        14.88380272827954   11.35473834013096   10.61388815719076
H        14.64467323644166   11.16204163695008   11.66479066027129
H        14.24361236703008   12.15723686136681   10.25051806237680
H        15.92113792962509   11.68072259592481   10.54106678154684
C        14.79143656864015   10.40050943154419    8.28622203073883
H        14.76795276969584    9.48602872937360    7.69821096164101
H        15.71535713395672   10.93292003224020    8.07211580986404
H        13.95754183985071   11.02594425873210    7.97421531109615
C        11.21215922855884    9.64699974072508   10.18521529713275
C        10.93506278507845   10.89198693484209    9.58187261569734
C        10.58262502489434   10.93331173416743    8.24480464279707
H        10.36314754258911   11.87929338321469    7.77543816433252
C        10.50122502102756    9.77214358850389    7.49600109815667
H        10.22156550625175    9.81894793891439    6.45428568023732
C        10.77261671338766    8.55388980499614    8.08704566632784
H        10.69788898179443    7.65264805382811    7.49713206533608
C        11.13459159886127    8.46599424325547    9.42342591719807
C        11.42163247299920    7.12326120223475   10.05692783754429
H        11.73846380619998    7.29659070817343   11.10240770212587
C        10.15558878270265    6.26176566793989   10.07939115227589
H         9.35085613207557    6.78785339973879   10.58863104090507
H        10.34252847119215    5.32572646710098   10.60209878780807
H         9.82833514001846    6.03204712837104    9.06787185820273
C        12.55923413962670    6.40606652107112    9.32401674702472
H        13.47961179267966    6.98488265722525    9.38961317745868
H        12.31541010243820    6.26570684727058    8.27363431079789
H        12.73386041233579    5.42658908419263    9.76451532889608
C        10.99134151898656   12.12156863175139   10.45799586416215
H        11.80984750644680   11.97049828140463   11.18084343605688
C        11.25668440624731   13.41152082236456    9.68583130489484
H        12.11631215845024   13.30070278840197    9.02780191169775
H        11.45861779290001   14.22377545456470   10.38027459642206
H        10.39334100412841   13.69168113231231    9.08658675382917
C         9.67367470894352   12.21954894182965   11.23740118196929
H         9.54100123987970   11.33703617563036   11.86211671970055
H         8.83502144809987   12.28553148514954   10.54600801214734
H         9.66801001703851   13.10137239167386   11.87362065438991
C        13.77816590642460   11.40065744647651   14.46267986042195
C        14.98598455810542   11.00613689047302   15.07349048542956
C        15.55244571519475   11.82306402980742   16.03888140901892
H        16.48368575972615   11.53071128338607   16.50050680904001
C        14.94906227509993   13.00585247188472   16.42241961390570
H        15.40363512678765   13.62751145940601   17.17914671641142
C        13.76062368381444   13.38723177235609   15.82966293495895
H        13.28972737363257   14.31068748163799   16.13201857876967
C        13.16559301279591   12.60804322403425   14.85107988320853
C        11.88156386276583   13.04730755490861   14.18769223670988
H        11.59192802738260   12.26565794034754   13.47208619913483
C        12.10276477685689   14.35464498899034   13.42237652863139
H        11.18777658461386   14.66087832652608   12.91921382532446
H        12.88778130065093   14.23115693080031   12.67865484176059
H        12.39859995596060   15.15142959495339   14.10099665247645
C        10.75278232905335   13.19947783852756   15.20888112836705
H        10.62375521079620   12.27711835782919   15.77010089990014
H         9.81689229084884   13.43002124131687   14.70329401371523
H        10.96893400057211   14.00183009548528   15.91042920487779
C        15.65312200634363    9.71170438357407   14.66926921800258
H        14.96235202266016    9.17908112344609   13.99396313620367
C        15.91124169784447    8.81626974021856   15.88333613466672
H        14.97993012709285    8.62105347132233   16.41105402373135
H        16.60803893804203    9.28537928665434   16.57365818350979
H        16.33560542656534    7.86677838965076   15.56607441581393
C        16.95489388613425    9.98782800321477   13.90995831506678
H        16.76381971121813   10.61082674255871   13.03830921186442
H        17.40023480246100    9.05545003765953   13.56877623336434
H        17.66838031095298   10.50184099061506   14.55074835643859
C        10.43561632654843    9.11723301065704   14.73136451486528
H        10.66047662418613   10.13597212409886   14.36089137124226
C         9.41789334577262    8.51764572614252   13.74370180928752
H         8.49137870190062    9.10467878493481   13.75726802925529
H         9.84705957755877    8.60690203823096   12.73482167248655
C         9.05684545298024    7.04792679478930   13.98507424316145
H         8.32441671460765    6.97535175640151   14.78695808777920
H         8.56297274862048    6.65927616109537   13.08739670975794
C        10.25481667705750    6.15168208870740   14.30641937861545
H        10.81230842213069    5.96620220640778   13.37942465623853
H         9.87747226909839    5.18472580376310   14.65699561245158
C        11.24204924898206    6.73852662495369   15.32568759531856
H        12.05663151133389    6.00614584230174   15.42158063826023
C        10.65170571278174    6.90145278483761   16.73770772890992
H        10.23732037695678    5.94802220761644   17.08257196860514
H        11.48234013666081    7.15471820257044   17.40153325847997
C         9.57244149211368    7.97889416183076   16.88611336866407
H         9.45802354038324    8.20152003299045   17.95222612020357
H         8.61172559453520    7.58690577881368   16.55676859182689
C         9.87040525608365    9.29008204534999   16.15266745937311
H         8.95327256296216    9.88985097474262   16.13052618728353
H        10.61410841820917    9.84686480456050   16.73014596157384

