95
CSD_code = OVEVER | q = 0 | S = 0 | Stoichiometry = C37H54O3Ti | MND = 4
Ti       32.84835269933074    5.75786824392370   11.72585569695351
O        31.53466716681147    4.66698755003064   11.95344963391154
O        32.64906173720405    7.04545488208795   10.58941927578419
O        33.58243852389982    6.26797322795198   13.20888425608480
C        30.22952041964412    4.53019527739500   11.72512290268201
C        29.74860060750926    4.43024636992081   10.40244804283076
C        28.38724500416087    4.28347704359623   10.19502328750142
H        28.00292625945718    4.20000141256871    9.19045420143557
C        27.50301328820055    4.23733369188104   11.25936985846486
H        26.44494207032711    4.12154475791266   11.07672248794086
C        27.97735290977035    4.33051932078408   12.55416256185279
H        27.28306947186330    4.28440399473338   13.37994680113720
C        29.33126764514442    4.48108883106904   12.80867941229189
C        30.75614861704570    4.43358743110456    9.27306397842913
H        31.57146801577828    5.12728788380923    9.55250484911303
C        30.18009736125511    4.88657093204646    7.93255786951731
H        29.64783159954898    5.82976247563057    8.03622694493342
H        29.49782252468962    4.14185950524343    7.52811568110403
H        30.98666130502121    5.02593714685779    7.21538594532539
C        31.35976503969416    3.02832347532809    9.14759834768735
H        31.81961950419030    2.73425481108951   10.09092779507628
H        32.11742688259081    3.00608960291058    8.36652047363993
H        30.58199076434691    2.30751776588814    8.89954930137134
C        29.86692525698678    4.56478692634369   14.21991415495933
H        30.93871281673163    4.80052090069838   14.15951168717691
C        29.19089268520712    5.66772048114801   15.03520690110201
H        29.27099892200848    6.62452721838599   14.52503760923129
H        29.67600867097831    5.75469348187895   16.00516218618884
H        28.13780995562048    5.44755129121086   15.19422310907676
C        29.71386811468396    3.21318201315649   14.92192452906576
H        30.15607578605583    3.25646280325722   15.91527011836473
H        30.20880125881832    2.43145532676734   14.34928250568678
H        28.66276698043269    2.95033933645245   15.02157604407935
C        32.65806815275511    8.37709453441095   10.66073852988080
C        31.43616517109945    9.07691488391888   10.62356024594410
C        31.44991914137769   10.45886596598450   10.71529621114400
H        30.52099828777959   11.00762096292588   10.70221487301976
C        32.64447739273972   11.14839684956373   10.81687004123277
H        32.64108590644324   12.22642940062830   10.88292734061737
C        33.84584615038319   10.46035843585709   10.82814370353248
H        34.76706261052279   11.01714079235321   10.89847514854742
C        33.87785569454902    9.07765521269446   10.75504381162135
C        30.16443917496830    8.26367642013867   10.52835251235344
H        30.39486800637652    7.36607079191632    9.93731876319012
C        29.75212862155211    7.80672342601733   11.93284031020232
H        30.55579136291512    7.21483423255723   12.39009975051131
H        28.85421053131620    7.19261790218756   11.88188039724920
H        29.55161898612336    8.67359243803966   12.56115004136446
C        29.01170693539032    8.99912811038303    9.84955595139590
H        29.32900821164717    9.41649329833401    8.89661470047932
H        28.63669333725649    9.80454420932188   10.47660654773135
H        28.19223488245367    8.30601363425481    9.66965215350429
C        35.15665931286772    8.26901843872661   10.75075713610006
H        34.99283525687976    7.40037219384511   11.41674322474581
C        35.41002131003180    7.74219242529095    9.33152515475133
H        34.56005454683248    7.15095090667646    8.99187187177939
H        36.30126474015730    7.11788442040203    9.31007925806710
H        35.55213165880991    8.57569536274294    8.64509731676225
C        36.38082812748814    9.03558536487319   11.24558358790613
H        36.19617995732357    9.48258154319512   12.21918103354358
H        36.65656381973525    9.82044804662170   10.54415297396512
H        37.22574873752868    8.35553687536702   11.33570293348354
C        33.21940142768841    6.19440637807552   14.49078089072037
C        32.71623872864416    7.34071724203491   15.13644226008585
C        32.36521443416190    7.25990154723012   16.47385449144738
H        31.98637180258093    8.13310896173451   16.98187765079720
C        32.49693814762848    6.07233547135246   17.17032205010248
H        32.22029639188055    6.02437276955380   18.21331959108846
C        32.99061327570936    4.94610602216444   16.53498923112985
H        33.09303488534088    4.03058031153324   17.09604622770426
C        33.35425325158972    4.98187891156438   15.19865549968291
C        32.64383268694039    8.62615697073696   14.34365942532585
H        32.46884947293084    8.35858514586513   13.28952502884113
C        31.52640046227503    9.56454028787117   14.79179617210394
H        31.40260091041917   10.35801621814055   14.05732559909992
H        31.76313106454883   10.02490146237136   15.74844504421831
H        30.58529307274484    9.02754379195644   14.88875334074950
C        34.00065583540660    9.33434047708000   14.41942113576300
H        33.99376314389243   10.22747056708911   13.79794683140323
H        34.78537862342584    8.66738607470121   14.06766726121975
H        34.22143321760062    9.61863841428365   15.44700694391762
C        33.91963018332643    3.79011793308095   14.45661231022561
H        33.44389027630041    3.77286608097550   13.45764819131397
C        33.65302091363177    2.45009994473328   15.13767481367517
H        32.59448500784450    2.32671032698750   15.35122749477478
H        34.21363945467667    2.36714175289126   16.06656823713538
H        33.96753898778686    1.63909531236194   14.48366816536475
C        35.42876913502779    3.99065205913422   14.26262406541328
H        35.61882404223326    4.92136327047331   13.72825504105635
H        35.85208248355143    3.16657850962428   13.69141684539488
H        35.92618428922476    4.03584227332925   15.23039183522975
C        34.28952239854361    4.55960247563064   10.79960246163420
H        34.21913291269782    4.63568660771269    9.70802610355497
H        34.16984770730046    3.50171635754557   11.06078083535752
H        35.30661548200701    4.85247757805900   11.08353494985219

