47
CSD_code = OVEWIW | q = 0 | S = 0 | Stoichiometry = C18H25Cl2NTi | MND = 8
Ti       -2.37074197093928    2.39872097037781    7.09760913162201
Cl       -3.55540191634754    1.47851786443770    8.68777636848187
Cl       -4.07548955022174    3.07564535556902    5.90775982302310
N        -2.02868939873376    3.95539883058201    7.92748819622852
C        -1.69469888716021    0.23388068107357    6.49437671982720
H        -2.20708845387028   -0.68484245709360    6.75232372336559
C        -1.86070416176940    0.96874546486159    5.30795257956828
H        -2.52226520888154    0.71586373793474    4.48854948692435
C        -0.93362038739714    2.03420339772385    5.31682616353593
H        -0.74230881803714    2.70488064015116    4.48887794018798
C        -0.17987595451680    1.94709090474420    6.51183209168699
H         0.70462164862193    2.52764045390033    6.74568647020693
C        -0.66222485365417    0.83741844992660    7.24537387534222
H        -0.23333303623626    0.43674960995531    8.15525649558790
C        -0.75076031352908    4.54783960251743    8.02558864194705
C        -0.32394079303663    5.45265099141754    7.03938918480802
C         0.90442294231491    6.08032479632183    7.19445024819450
H         1.24016542797145    6.78918329615297    6.45368545941905
C         1.70295616196237    5.81648540735879    8.29174778429807
H         2.65076324069468    6.32173472511006    8.40291360058863
C         1.29234945481772    4.90113216524102    9.24306867495937
H         1.92851668042981    4.69528939566200   10.08987319173292
C         0.07118994508403    4.25199205088769    9.12593290211976
C        -1.19917844587831    5.73534159335735    5.83850569875913
H        -1.95613248723413    4.93542633615032    5.77327005576541
C        -1.92203326350651    7.07469395544508    6.01224096477579
H        -2.53997540312299    7.06592442648947    6.90612114762845
H        -2.56114432675014    7.26744375466476    5.15400159199997
H        -1.20171226420715    7.88590363571048    6.09930084117456
C        -0.39297614764206    5.74106184843136    4.53686134543911
H         0.20705586543080    6.64385042285431    4.45068951601819
H        -1.06797442676050    5.70559369781490    3.68477288638535
H         0.27342259297863    4.88212582887157    4.49144592646429
C        -0.37827412082049    3.24375446409430   10.15995817845183
H        -1.22957990056037    2.68117849939208    9.74129845415118
C         0.73268880674387    2.24470991234184   10.49455986413556
H         1.18392131858710    1.85273475471829    9.58540128098985
H         0.32245466253721    1.41555695490859   11.06651022864517
H         1.51349548850366    2.70969771360163   11.09154291924888
C        -0.84354427977645    3.95966658321199   11.43151042737909
H        -0.02545743630396    4.53023581967814   11.86682278744379
H        -1.18931428583156    3.23407767556083   12.16373371388732
H        -1.65961672938923    4.64310119341275   11.21165607160938
C        -3.09012765521321    4.70245160357042    8.58445269458360
H        -3.53724239990923    4.10405860233133    9.39145684237651
H        -3.88390548652164    4.94755266828115    7.86453889650721
H        -2.69749147291975    5.63211172029493    9.01020891252507

