122
CSD_code = OVEWAO | q = 0 | S = 0 | Stoichiometry = C41H75B2NO2Ti | MND = 7
Ti        0.60193212910775    6.09043189900033    4.23042214862659
O        -0.30250335672199    5.09649401638822    5.30366309804647
O         1.57557620269506    5.29819759498446    3.07153933215585
N        -1.12647762583303    5.65930652076079    2.92121847629820
B         2.84614826464065    5.77989427475811    6.04685274414108
H         2.60330870505603    4.60330865547314    5.99419155439136
H         1.84767091858682    6.43740149861266    5.28542906181617
B         0.01302829642559    8.38176497345219    3.72395259229764
H         0.81167107326242    7.63646523820915    3.11602478241078
H        -0.47259346187026    7.68372778964791    4.63762566986078
C        -2.35908760536867    5.62643322301149    3.44408388506832
C        -3.48388932103274    5.53164388801701    2.62419851537393
H        -4.47237105039413    5.55943474894995    3.05560298594798
C        -3.32037065867084    5.39945297887646    1.25842275369629
H        -4.17665834185332    5.33403824000220    0.60410417115710
C        -2.03738139744932    5.33407044808223    0.74864959794281
H        -1.87706528600444    5.19603753152990   -0.30957219347335
C        -0.94716440068329    5.47362838695500    1.61007544301517
C         0.42617546218747    5.50284160405909    0.99091503741570
H         0.64230320757469    6.56685287788716    0.85583883431175
H         0.36116641102566    5.04591520488640    0.00351944740442
C         1.66209335395856    4.89895527893372    1.75473426070449
C        -2.56399023975383    5.72393310080869    4.93306879026544
H        -3.59033691160124    5.44000476559772    5.16637742241048
H        -2.43540036295937    6.77819903291459    5.19145108375582
C        -1.56629687982225    4.90196275394419    5.82671904887426
C        -1.57053508547332    5.53865979220651    7.29760524223529
C        -0.95962468234701    6.95339047310302    7.26308607601822
H        -0.83354569952689    7.30472997955725    8.28594416064163
H         0.02272291391353    6.94001230330476    6.78895136550362
H        -1.60236631108450    7.67420213591082    6.75967432052045
C        -0.65068657742144    4.73142157803073    8.22276169758108
H        -0.46392927362525    5.29592829005719    9.13438821288107
H        -1.08053628945294    3.78122668662534    8.51907039127003
H         0.30117222372046    4.56037795232824    7.72365383956397
C        -2.95329442219990    5.71250187898804    7.94244742256194
H        -2.82750222595827    6.27984535442991    8.86314439035669
H        -3.62581796721071    6.27707895432063    7.30249665714612
H        -3.43039985666484    4.77927287499282    8.20749026812071
C        -1.92929259136323    3.33590891176887    5.76079451708832
C        -2.51757609657201    2.95286697801702    4.38978597470301
H        -2.57360843852915    1.86753585745203    4.32140033137106
H        -1.91046902751922    3.29971326003511    3.56585218505241
H        -3.52878807884641    3.33321011417634    4.26938395575668
C        -2.99064991638473    2.84441611161232    6.75376111406361
H        -3.19354739896681    1.79646806555403    6.53614671535711
H        -3.92421673941285    3.38884265875588    6.63745802169232
H        -2.66929405446363    2.89519517277575    7.78673276088660
C        -0.65171441270877    2.50077939352281    5.96169424273828
H        -0.79841035451082    1.49865685637101    5.56453008069026
H        -0.39733843261070    2.40578417473597    7.01136020180974
H         0.19389525652050    2.96072337655912    5.44927786093547
C         1.62083825895876    3.30482558554466    1.74765237596314
C         0.22135733357092    2.87939068169379    2.20610608770257
H         0.19179368734736    1.80220272647170    2.36161042383024
H        -0.54511690049930    3.12375648580337    1.47349928278178
H         0.02019904372911    3.37550372452757    3.15568225784485
C         1.88336238487266    2.63162153253904    0.39883665111926
H         1.71911828853263    1.56102308704686    0.51274320030800
H         2.90377506503356    2.76783084208291    0.05726268075614
H         1.20017577432439    2.98801932915075   -0.36893153423479
C         2.57806431392457    2.72556962401662    2.80705497945716
H         2.23206025609954    1.73769654782464    3.10560382229434
H         2.58518437446575    3.36624518093187    3.69100019125008
H         3.59000366233318    2.61144267949390    2.43855708193448
C         2.95519482700390    5.56650187332672    1.08491772018019
C         2.90730227931899    5.62206097392945   -0.45069035710530
H         3.87928310524540    5.95481555492246   -0.81038004764215
H         2.17077941919244    6.33549403503555   -0.81037979510470
H         2.70297297609788    4.65901037651944   -0.90189908209972
C         4.25941376699059    4.87348073168561    1.49529970977503
H         5.10190065932616    5.49481622190199    1.19549170107933
H         4.38270175516175    3.91042863039079    1.01173863702199
H         4.30008415574347    4.75285676806064    2.57326626903183
C         3.09550209546881    7.01673209829942    1.57827128072384
H         4.00592147047683    7.44691199418982    1.16488168963628
H         3.16579366377715    7.03932072301624    2.66546650827270
H         2.26834130850029    7.65075598880666    1.26484829913614
C         2.84118742030136    6.41781085078908    7.53880345042525
H         1.91489538487672    6.21380161486614    8.09180561403915
C         2.97382161766357    7.94665075842273    7.48677507323857
H         2.05474742238109    8.33886273795658    7.03375316873145
H         3.03369853638128    8.35687603426081    8.50197227917927
C         4.16749739931119    8.47030490392308    6.68453946375987
H         5.07045511396597    8.41384262216025    7.29017770003038
H         4.00614338935570    9.53449916264690    6.47721359131257
C         4.39228985325404    7.74789825355092    5.35433041260697
H         5.37561449652488    8.03820504201341    4.96524685967137
H         3.63962733475274    8.10695337604651    4.64044777942708
C         4.27162764556723    6.21795725732306    5.41322696232724
H         4.39518445254901    5.86239190290986    4.38055421751655
C         5.39093052945355    5.54262439444753    6.22283383286189
H         6.37221951022322    5.84527149935604    5.83900512502040
H         5.29558250541433    4.46495719587696    6.06259600760794
C         5.35516959650650    5.81063378322479    7.72886580591149
H         5.99400313426951    5.07243194829531    8.22647769743314
H         5.79670921983620    6.78295020575330    7.94017381151502
C         3.95759365620220    5.73311136175547    8.34659203838584
H         4.00234304306106    6.15332391823414    9.35803283771960
H         3.68147059692518    4.67946062827790    8.44285856021032
C        -1.14256598314665    8.97453620193503    2.73706110875884
H        -1.74481647273686    8.18679525850392    2.25016687880358
C        -0.48739493144225    9.76561591686402    1.59357256837334
H        -1.25672636320897   10.21322163648314    0.95319521936381
H         0.06272647960870    9.04711715068725    0.97464312447684
C         0.47880177892719   10.86999851880177    2.03177130365805
H         1.08492872132570   11.15991575595033    1.16627602549092
H        -0.08837900488925   11.75558713165211    2.31244017155354
C         1.42108248804887   10.47967708800721    3.17464028738158
H         1.88866432889095   11.39265656157710    3.55939673721380
H         2.22226984671187    9.85370707430386    2.76901975096181
C         0.76533849953052    9.69402244508206    4.32083145753734
H         1.58014901809961    9.42414395572234    5.00958374879739
C        -0.22897046663267   10.52804150345951    5.14377531019801
H        -0.50006078768413    9.93484542282318    6.02331382750953
H         0.25255219279136   11.44202054612043    5.50830986805143
C        -1.51140052365382   10.92438850391038    4.40538970730684
H        -1.31576057646122   11.78896005639363    3.77389294153777
H        -2.25076635713149   11.25078950700636    5.14531762541051
C        -2.13620510680517    9.80959653659716    3.56107539273003
H        -2.89138977799214   10.25674022704898    2.90392533002205
H        -2.66442947197883    9.11964384110089    4.22950874216546

