57
CSD_code = OVEZAS | q = 0 | S = 0 | Stoichiometry = C27H25AuNOPS | MND = 2
Au        4.01683133305196    8.02667103721619    3.88911848707252
S         2.84445448337784    9.70988273553475    2.79061057084375
P         5.14322626929261    6.34143613755533    4.89164452749617
O         1.84032401619372    7.36238691110613    2.53501477460842
N         0.61270245077175    8.92623957848553    1.45062617310395
C         1.62655425061836    8.65277846891038    2.14807120402416
C         0.31091331275949   10.16376745540827    0.91105761853170
C        -0.99830715545009   10.64406086229542    1.05599690923992
C        -1.34369735412559   11.83566550994117    0.44320084758286
H        -2.35060941694526   12.21468977523400    0.55742467961168
C        -0.42599944679349   12.54622114216498   -0.31333740153369
H        -0.71754510859216   13.47322887622270   -0.78588099588029
C         0.86179606500789   12.06262174647631   -0.46049025678177
H         1.58471839884602   12.60965383051521   -1.04889989409478
C         1.22994179261659   10.87833603581981    0.14741859312409
H         2.23211621116889   10.49163024717915    0.03674667780761
C        -1.98037980310315    9.87224781843599    1.88406937661644
H        -2.96558112995972   10.33139472095817    1.84947023591211
H        -1.64650761809037    9.83205609695935    2.92100461378083
H        -2.04752907034178    8.84760783471072    1.52071365895201
C         0.88401124324496    6.41472151993464    2.09486052423728
H         1.18281691248152    5.45756123192130    2.52033830985753
H         0.87186306620806    6.36478240738502    1.00378904875525
H        -0.11210006211718    6.69246458441330    2.44428857387165
C         5.54289517972877    4.97683038161110    3.76740987097351
C         6.69716042197167    4.20885857786738    3.88468902533650
H         7.40958450896963    4.42042436778065    4.67052312138397
C         6.92696947589579    3.18093896309315    2.98787664317971
H         7.82372036206806    2.58518454624437    3.07446767166309
C         6.01304079320681    2.91577218719567    1.98027205379076
H         6.19979248197974    2.11269064868110    1.28310164390463
C         4.86505500385993    3.68323151277625    1.85978929851049
H         4.15800879662122    3.48094872355703    1.06911702210598
C         4.63144710429686    4.71642413351064    2.74781961917684
H         3.75141553122405    5.33987763484310    2.65730642476377
C         6.74807054246086    6.79018727964951    5.60345595001058
C         7.13065853770700    6.48758078574947    6.90492589078976
H         6.46208237669812    5.93818995432170    7.55320307741904
C         8.37205006122896    6.89431454411263    7.36287725996582
H         8.67197428993896    6.65981673403962    8.37361410545480
C         9.22693201348399    7.59962546601248    6.53219358461006
H        10.19332938659957    7.91402147072600    6.89672953624783
C         8.84269857623407    7.90933217589162    5.23603311697320
H         9.50651147418879    8.46585982955204    4.59161488778569
C         7.60362825773038    7.51222822923132    4.77344975654080
H         7.28082934237135    7.75738458237311    3.76912054190247
C         4.25777171188215    5.55000119232941    6.26147247566636
C         3.56908848722383    6.39897311448770    7.12515992875378
H         3.58739767230520    7.46616615555035    6.94090023351776
C         2.87180069427167    5.87691978821275    8.19758555428267
H         2.34114501081125    6.53577525788826    8.86844824426439
C         2.84856192765662    4.50594627677167    8.40398547670635
H         2.30023120691889    4.09635687346398    9.23906738829841
C         3.52105634023439    3.65933047898333    7.53770975532052
H         3.49558396442199    2.59150121132683    7.69773852513517
C         4.22675737941989    4.17493619022087    6.46463755903112
H         4.75023744611586    3.51506416706990    5.78664789991568

