43
CSD_code = OVIFAB | q = 0 | S = 0 | Stoichiometry = C17H18Cl2N2O2PtS | MND = 4
Pt        6.41779659769243    1.48160388714056    3.20026657456373
Cl        8.03713575250867   -0.01832249281802    2.45727771388733
Cl        4.84232295743181    2.99576602795427    3.87575647385619
S         7.20924971722494    2.89283301315887    1.62858316681164
O         6.65192461166215    4.21853594244812    1.46445187570333
O         4.58287621132113   -3.55643760907761    6.79657789460628
N         5.82041528908651    0.16606578050120    4.52786559072840
N         4.67096241452272   -2.95029924288595    5.57970125343657
C         6.07194087842140    0.29554768620008    5.89563391112420
C         6.62190661986161    1.37285639451379    6.55967973720999
H         6.90572383145186    2.26645930159801    6.02037180795283
C         6.77517880351748    1.26059904725447    7.93708480410097
H         7.19787509983926    2.08513307749528    8.49065451826070
C         6.39512028481621    0.11036651915701    8.61268547797437
H         6.52888310637999    0.05594344450032    9.68254964688844
C         5.84578740334112   -0.97688374729437    7.94119619772739
H         5.55360754690166   -1.87050309614430    8.46945613297919
C         5.68632639323337   -0.87636238161413    6.57264403224446
C         5.17102354471585   -1.77112943093809    5.54203667214654
C         5.29854341686655   -1.01354001962457    4.29040108581734
C         4.93605835010433   -1.46496666150594    2.96223435455962
C         5.08032514472374   -2.80586021094684    2.60013269469640
H         5.43550834609349   -3.51245564189348    3.33225709209374
C         4.80417297461072   -3.20855224037462    1.30822325962784
H         4.93469351326092   -4.24379713655815    1.03040313391911
C         4.37129713736381   -2.28934999430197    0.36544915098092
H         4.16458327863741   -2.60780809304727   -0.64539422232646
C         4.19621159037242   -0.96178028536478    0.72444395628775
H         3.83461183629060   -0.24991379470502   -0.00259744202606
C         4.47472113622014   -0.54518387564090    2.01180242641602
H         4.27291492445980    0.48210174339222    2.30574214697947
C         4.01943585119036   -4.84992205953755    6.68196886510851
H         3.89782323447301   -5.20403452740233    7.70307468277291
H         4.68663051414955   -5.51726623598322    6.13122805514710
H         3.05195918928841   -4.80890119337363    6.17785437464617
C         7.11694925391466    2.07284009841493    0.00753093958039
H         6.06696350436126    1.94482478541741   -0.23517368130871
H         7.60933300471046    1.11057588880613    0.08893763724251
H         7.59296814176257    2.70898934493183   -0.72965501846186
C         9.01335149291358    3.08772542825887    1.73884450090343
H         9.23047411734915    3.62696777082434    2.65532286341703
H         9.34873780228634    3.66194219740378    0.88294539708189
H         9.45817518065634    2.09959259166840    1.76285026464463

