72
CSD_code = OVIHUY | q = 1 | S = 0 | Stoichiometry = C31H36AuNO2P(1+) | MND = 2
Au        4.31633332786240    0.16514824467895    1.07225273815318
P         2.94947954089366    0.94123125539780    2.72371718403809
O         6.19677871591370   -2.94791948590056   -2.74963894910873
O         6.82562884804320   -0.71364982793652   -2.32252206029125
N         5.42252601868857   -1.74600257006715   -1.03355384847843
C         5.28975356082878   -3.81635850931297   -2.03194931253619
H         5.85836732201439   -4.69243352390172   -1.71308527270291
H         4.51274157071354   -4.12907483161087   -2.73239444213946
C         4.73211126456808   -2.99502640435010   -0.83893470117128
H         3.65038972375024   -2.85038208545147   -0.89417025416961
H         4.98540431946719   -3.43508421307221    0.12843745187786
C         6.19755736315055   -1.81063878533738   -2.10165525605888
C         5.51853980915386   -0.48222043598923   -0.46171122780207
C         6.40569315146080    0.15424092062350   -1.28561942757193
C         6.94630199495834    1.49815204355844   -1.30219993456115
C         6.60546628367053    2.42693540945978   -0.31749768092066
H         5.93543363482963    2.12859806328310    0.47394916483161
C         7.11402140560949    3.70927701700227   -0.36058855928178
H         6.84267982804750    4.41892678929214    0.40650289535203
C         7.97050274690232    4.08778354951102   -1.38311590373712
H         8.36556510856921    5.09125653957140   -1.41452277290490
C         8.31725075579846    3.17242385790325   -2.36334760614258
H         8.98450238277139    3.46121247081042   -3.16077567777009
C         7.81181580250156    1.88696722790657   -2.32691725835518
H         8.08359512091974    1.17746437264871   -3.09306961255682
C         2.98331651549015    2.33325483759369   -0.91838709128887
H         3.18486189807103    3.30954979705396   -0.50192870160660
C         3.65520104598952    1.91102168406219   -2.05071768119512
H         4.38790272480799    2.55611593695665   -2.51086001537436
C         3.37557305293485    0.67152445208827   -2.60139579742063
H         3.88762794561386    0.35124059296082   -3.49725069527920
C         2.41790030249443   -0.14102579115490   -2.01844722282769
H         2.17454844379511   -1.09652833298965   -2.46194390635241
C         1.73925728961899    0.28101548626619   -0.88841927303815
H         0.96827338426877   -0.34005017748403   -0.45590035312240
C         2.02482495955479    1.51876294550342   -0.31944721765781
C         1.20950093574815    2.04930947185192    0.79874959763966
C         1.50403613712167    1.90246664992008    2.15907249327559
C         0.66207151679613    2.50751950898563    3.09533715016752
H         0.88335139223125    2.42177286812400    4.14599296450589
C        -0.45236793265883    3.22347106662290    2.70673318488936
H        -1.08446232759479    3.68017467970054    3.45283129039898
C        -0.75229808693824    3.35091787054988    1.36066698176267
H        -1.62289903927961    3.90405064832890    1.04464516856300
C         0.07853737375373    2.77138314585665    0.42224076016183
H        -0.13876506416789    2.87501735870614   -0.63091353836221
C         2.17897901596919   -0.52900104326676    3.62138142620735
C         1.53631945269422   -1.34383539143694    2.49385906024743
H         0.74538854736659   -0.77098084626592    2.01088187796856
H         1.09734630558624   -2.25476619745920    2.89613452790638
H         2.27626395830375   -1.62079329870193    1.74133976515068
C         3.31317294361009   -1.33633048602706    4.25192521745712
H         2.94757082641523   -2.31820778136553    4.54773964228758
H         3.70063126436220   -0.84560157495355    5.14159855155364
H         4.13041217219523   -1.47692534709826    3.54251438774465
C         1.10783570900424   -0.22219485879306    4.66418870546504
H         1.47529953630612    0.41823461870100    5.45986459564209
H         0.78927580127141   -1.16022221827113    5.11727690313885
H         0.23377483519005    0.23666102835245    4.20848561260609
C         3.93132622800751    2.10379819885208    3.85150801138920
C         3.96407586346928    3.43409397244694    3.09350273977507
H         4.22821111150434    3.27102003828434    2.04651880938588
H         4.70966918757826    4.09412123027675    3.53257892055006
H         2.99959509654990    3.93691120532451    3.12981400662994
C         5.35624359650533    1.54432510345464    3.92879827619618
H         5.80489662269664    1.46258134964990    2.93942320205967
H         5.37792948144071    0.56349851845690    4.39720962510975
H         5.97663137391892    2.21250030328494    4.52334507608131
C         3.42748823937871    2.31297280121926    5.27719273660920
H         3.43516736184075    1.38405155657524    5.84221706991265
H         2.43338782629174    2.74763606118634    5.31159256991304
H         4.09817557380510    3.00836126935676    5.78066090918718

