72
CSD_code = OVILEL | q = 0 | S = 0 | Stoichiometry = C26H40N4SiTi | MND = 6
Ti       17.21776833092071    6.74750516235038    0.86460361749995
N        16.84714502179207    4.71189710214170    0.72329556082208
N        16.43320481204785    5.79320866971739    2.60459943180519
Si       17.21779298236255    6.74749965553871    3.81862459567655
C        16.84766912597732    3.57035171734610   -0.18235169139404
C        16.56038196894753    4.14078594373547   -1.58055325970295
H        17.26780835946382    4.94063137378371   -1.80100073999170
H        15.55521850974569    4.55447922919311   -1.61097730281645
H        16.64339934325513    3.36152554502303   -2.33504879387274
C        18.18371008314470    2.81078238696634   -0.22251652759682
H        18.99509989621275    3.49087658265629   -0.46991345111299
H        18.13866997102288    2.03476756981366   -0.98376949321332
H        18.39242393992236    2.33781768048307    0.73326882373264
C        15.72214267696557    2.59331090244278    0.19471990277288
H        15.95798111722416    2.06417606972288    1.11454116035784
H        15.58194664979770    1.86216161214692   -0.59821335459311
H        14.79176327534345    3.13980789110421    0.33636746752915
C        16.80833095178328    4.66206257618625    2.03481702512817
C        17.17521298443041    3.51450138979660    2.90950998258787
C        18.51503596653131    3.17485459622211    3.06923359087690
H        19.26842527915161    3.71840191135393    2.51420902030931
C        18.87900421064970    2.16902458187687    3.94692815556409
H        19.92118649757530    1.91037735882726    4.06665065934471
C        17.91069732648057    1.49700981564794    4.67442406830398
H        18.19581836342265    0.70963521280966    5.35661922624585
C        16.57739244071189    1.84475600634154    4.53384443531468
H        15.82155545147105    1.32996767615020    5.10916544571153
C        16.21045151476515    2.85502625359652    3.66241924413301
H        15.17338642239130    3.13859719785464    3.55671510251548
C        18.56327057483799    5.96289501937573    4.92524387408690
H        18.85314237054481    6.63871019663933    5.72265772480101
H        19.45456687892792    5.71065212285333    4.35942245337593
H        18.18903161133725    5.05316295448232    5.38313066154964
C        19.05849913926257    6.40881286927328   -0.09256536128798
H        19.04875275701251    6.25856728485003   -1.17986633949906
H        19.53289139596943    5.52823472282846    0.36336404022518
H        19.71971312227272    7.26049708001132    0.11314291283877
N        17.58836646294546    8.78310611731511    0.72329549239228
N        18.00236791742159    7.70179390413963    2.60458824367135
C        17.58782845029538    9.92466482283560   -0.18233639242368
C        17.87512348015047    9.35425361143382   -1.58054568508318
H        17.16770448492570    8.55440616318110   -1.80101261276914
H        18.88029063190720    8.94056992422735   -1.61097244032155
H        17.79210416334723   10.13352736827865   -2.33502691474366
C        16.25177595959122   10.68421419577981   -0.22249743646165
H        15.44039966558616   10.00411900629462   -0.46993764969947
H        16.29682147634153   11.46025930136554   -0.98371885081818
H        16.04303561734234   11.15714044965600    0.73330143937832
C        18.71333990445214   10.90171521166573    0.19475809945445
H        18.47747204849520   11.43086538314357    1.11456314623641
H        18.85356322890649   11.63285184920205   -0.59818130985651
H        19.64371447346797   10.35522010818924    0.33644489184956
C        17.62719830900035    8.83293207451929    2.03481893763345
C        17.26028399353901    9.98048082180668    2.90951257782841
C        15.92044772052877   10.32008469371730    3.06922225759767
H        15.16708240507469    9.77649075532828    2.51421116875536
C        15.55644074896119   11.32593143023424    3.94688057426850
H        14.51424977237667   11.58453045744868    4.06660758015906
C        16.52472252801928   11.99799119493741    4.67437159122632
H        16.23957214311879   12.78537674766526    5.35654177827364
C        17.85803876458773   11.65026971360524    4.53382585698885
H        18.61385548343235   12.16511092530037    5.10912192519222
C        18.22501913755637   10.63999749618833    3.66241872080142
H        19.26209440011933   10.35646586244940    3.55672044722133
C        15.87235269528859    7.53209891190413    4.92529360668308
H        15.58253040656556    6.85631540172819    5.72272626905545
H        14.98102074076253    7.78432743664551    4.35951729752523
H        16.24659296783089    8.44182802448123    5.38313049387606
C        15.37701897165782    7.08619959454830   -0.09253151357338
H        15.38674951413574    7.23643816972823   -1.17983274120433
H        14.90262089043614    7.96677536804559    0.36339436081655
H        14.71580911797302    6.23451558190740    0.11318492202726

