100
CSD_code = OVIMOW | q = 0 | S = 0 | Stoichiometry = C38H55Cl2N4Ta | MND = 6
Ta        5.06001268715299   10.10162139969717    3.97623039184856
Cl        6.71073481722644   10.88167733012758    5.42445115058726
Cl        3.05577313758765   10.52880034488988    2.85598002751180
N         4.61973904860697    8.72692702315595    5.04450433749296
N         5.96530143159513    9.01040494667175    2.35528455580153
N         5.77928887315107   12.05969128100354    2.70389235233934
N         3.72511347809596   11.64343972576389    5.75604630139505
C         4.42083773932819    7.84487287217515    6.12402668023453
C         5.14080714023937    8.43404285345820    7.35602349404106
H         6.20268387233326    8.52926041056527    7.15037332178713
H         4.99675019924201    7.79412541647595    8.22243998692652
H         4.74754779778912    9.42592518768386    7.56628487708538
C         2.92256847777567    7.69523399171572    6.46166759935557
H         2.51601163530421    8.65581152920468    6.76520606412914
H         2.79892817306721    6.98680156298285    7.27700609430739
H         2.37120157740156    7.33671095802093    5.59775582908294
C         5.00726112351350    6.45535284781873    5.81378941837536
H         6.05470778299668    6.55125367783454    5.54542989743627
H         4.48111564878765    6.00587816581674    4.97785747052049
H         4.91670789346059    5.80978486992718    6.68355450887993
C         6.18711848216474    7.61972098771275    2.56492507187435
C         5.20374655208354    6.68543401719637    2.20695719140996
C         5.45704912590548    5.33913550442569    2.43086005913177
H         4.70793860260269    4.60644722511578    2.17329089341513
C         6.65615576318912    4.91730910585204    2.97269723009131
H         6.83751465475090    3.86466796567949    3.13144495909111
C         7.62214883539065    5.84468037009354    3.30989245749044
H         8.55789648005951    5.50766844651269    3.72943131316593
C         7.40676969712374    7.20259222694898    3.11453171140924
C         3.88041203637210    7.11507769256616    1.61295590205172
H         3.94526179121323    8.16912944417858    1.32593275330070
C         2.77964656433334    7.00437313067226    2.66952554898578
H         3.03041476463959    7.64535020253725    3.51162567040555
H         2.67658718471731    5.97682022834359    3.01294849925846
H         1.82984475973405    7.33128093185832    2.25267166041591
C         3.50559227899333    6.29565542314955    0.37409348984142
H         4.33508218903269    6.22952278200276   -0.32771213096546
H         2.66256551448685    6.76074200900576   -0.13207906418523
H         3.21519310218572    5.28446381384495    0.64782897241373
C         8.48332338707248    8.19863452178049    3.48536362437617
H         8.12245426804209    9.20978116965938    3.26552647085665
C         8.77572157290751    8.13343265767271    4.98487143835185
H         7.86464387003690    8.33802248146529    5.54155468223463
H         9.51294934442087    8.88606242864260    5.25363411855729
H         9.15580682694325    7.15548968921895    5.27066579773794
C         9.75877847907113    7.96284652852461    2.67188260293226
H        10.50626402998517    8.70951152059872    2.93069202408070
H         9.55795217891049    8.03606884212745    1.60470277874648
H        10.17430588816962    6.97873704018745    2.87471096256415
C         6.65144220506928    8.48453548441747    0.06353898865507
H         7.04682465979313    9.00377537221000   -0.80509405427525
H         5.81294185893888    7.86914010935988   -0.25499484411466
H         7.41676819020928    7.81928453605990    0.45816914203963
C         6.20652537932523    9.47007179767027    1.12063268369885
C         6.10168594332271   10.78008164259439    0.70330773497292
H         6.25627020647097   10.92886550828896   -0.35658379322455
C         5.95252585266400   11.98832933247327    1.41938396317240
C         6.06959521323845   13.22370351188008    0.55798042443164
H         6.18951294630794   14.11975693361072    1.16207369664203
H         5.16356580659923   13.32109702297307   -0.04053712443826
H         6.91164208147564   13.13500959078750   -0.12634425627425
C         5.85605718255301   13.30085414279083    3.37954577367280
C         4.73164934884283   14.13148111226686    3.52142523304890
C         4.82140348824684   15.23446965653579    4.36078140252102
H         3.95969477318471   15.87234603947001    4.49075463165592
C         5.99680273594817   15.54589961739396    5.01314458055762
H         6.04414210306819   16.40256866459072    5.66986080050633
C         7.12820797562699   14.78876812362481    4.77574540810162
H         8.06143847110852   15.07952703296189    5.23118313634871
C         7.08673765366121   13.67109657324610    3.95635380947252
C         3.47309668036285   13.94603579137511    2.69974102765735
H         3.56272106379057   13.03450740213366    2.10266336894341
C         2.20811278466001   13.81553921289960    3.54884346309400
H         2.20284631097211   12.87171931776505    4.08351243395060
H         1.33322990251722   13.83594213781357    2.90223429658024
H         2.12306016553662   14.62729092564518    4.26828698833729
C         3.31098968139433   15.13898719754454    1.74736201250151
H         4.22173339955364   15.32975795412976    1.18522876916758
H         3.06605586475571   16.04049045618283    2.30456975537272
H         2.50524999148050   14.94471005046392    1.04225621187203
C         8.37236949500605   12.94845096613210    3.61060282776116
H         8.12398923011261   11.95268571786817    3.22928421782244
C         9.31446098479110   12.77246069699178    4.80232608883266
H         8.78840099225977   12.32386957841801    5.63877468748553
H         9.74158722810930   13.72294075954936    5.11307058617059
H        10.13459834366095   12.11564928287065    4.51891900413047
C         9.10430684743536   13.72393362775839    2.50797384467888
H        10.03677725073438   13.22199500766818    2.25701579405089
H         9.33576249116662   14.73184013680550    2.84788312452294
H         8.50319058567003   13.79816626456537    1.60657756437102
C         2.44958434048222   11.35044029056534    5.98732331780537
H         2.04880509114288   10.52302270400483    5.41730081525308
C         1.66750337394272   12.05774085935762    6.88545658708845
H         0.63817361341524   11.77821898066600    7.04523849979671
C         2.23281902203196   13.12997699766727    7.55867600828091
H         1.65036644650436   13.70947909252394    8.25978014055594
C         3.55934690763626   13.43973467949967    7.31095481564624
H         4.04441619207023   14.26588173689019    7.80562885240821
C         4.26760201596875   12.66383414278118    6.40644560125601
H         5.31097886804305   12.86006144356678    6.20371090915077

