58
CSD_code = OVIMAI | q = 0 | S = 0 | Stoichiometry = C27H21N6O3Sc | MND = 6
Sc       -1.72762492822714    6.28594103952287    3.97797140497147
O        -1.70678255843113    4.49590185005922    3.30147596517525
O         0.21507364807391    6.53276141049640    3.93640780494478
O        -3.58701078778043    6.61747362050895    4.57386517862102
N        -2.03885985260970    6.70433726057226    1.77246067884473
N        -2.58046120468677    8.93835193743311    1.62556214150659
H        -2.84293503732769    8.89737558708799    2.60113296304450
H        -2.95130455030930    9.68816104952179    1.06912427231031
N        -1.41165319756064    8.54287278683846    4.64764006241956
N        -3.55353358792427    9.39173070761555    4.70049495248113
H        -3.84521268171896    8.41532214239261    4.58466363805358
H        -4.18890795292734    9.97093008999166    5.22664112816216
N        -1.65418441543302    5.46678861656488    6.05933305301240
N         0.48026572267004    4.64424355288224    6.13870523933524
H         0.60801844580866    5.05528040655343    5.21771231640695
H         1.26294324351001    4.27398342116736    6.64546990411185
C        -1.69995771845176    5.52546912925273    1.16616113533089
C        -1.52478138234950    4.37873625012540    2.01820816025577
C        -1.18387974591386    3.17157812701565    1.40805621852545
H        -1.05238989892461    2.30378270332803    2.03710176896695
C        -1.02103175810571    3.07398393133649    0.02857008133675
H        -0.75480108743361    2.11746045203669   -0.39835671318187
C        -1.19443711890478    4.16110563492005   -0.79143864795941
H        -1.07104099217537    4.08003220851188   -1.86086790242817
C        -1.54222566085013    5.40501755192931   -0.23511115600476
C        -1.75281117662379    6.57008053511564   -1.00918611838517
H        -1.63476160412667    6.51820526715211   -2.08237443176431
C        -2.10886334657078    7.73317664867649   -0.40072962045420
H        -2.28454669315041    8.63664879179255   -0.96535799548911
C        -2.25114953903493    7.76878720264661    1.01293559197788
C        -0.07055551891067    8.71126675882707    4.81290841617501
C         0.76586733261938    7.61691012479146    4.41286503355910
C         2.14136789549941    7.76908471541648    4.56858508718145
H         2.78650367151785    6.95720910983161    4.26621097126997
C         2.68682151744034    8.94043636932691    5.09071015072198
H         3.76045124018002    9.01498463666515    5.19001479402533
C         1.89279066214239    9.98933075249013    5.48023508127233
H         2.32065549303436   10.89290907767534    5.88767510296827
C         0.49627277466247    9.89168063521115    5.34674866314536
C        -0.40055956795650   10.91776360582308    5.72400164472458
H        -0.00861161596059   11.83254198645463    6.14599451301692
C        -1.73954416471552   10.74518914749965    5.55118212385704
H        -2.44871276104650   11.51226396760456    5.82466633458801
C        -2.22185882459006    9.53298305306882    4.99222261875127
C        -2.89454391457504    5.60138555726191    6.60732040398519
C        -3.89633203755824    6.22050192895827    5.78858861902660
C        -5.16178254144449    6.39038544141235    6.34080361699640
H        -5.93214342238153    6.85160436199628    5.73924097176547
C        -5.45310146475296    5.95703994887565    7.63472399830090
H        -6.45199443524590    6.10550996813588    8.01960242281231
C        -4.50499614763823    5.34720248568433    8.41553465230971
H        -4.73859788849524    5.00629822511004    9.41292750538253
C        -3.20614299518338    5.15337684577341    7.91051725326577
C        -2.16667736669454    4.51987680528511    8.63421572256250
H        -2.36480430787593    4.16531739377937    9.63610152040793
C        -0.94345503635875    4.35217591348104    8.06433707485369
H        -0.13963400530707    3.85654144266192    8.58788833551083
C        -0.71063515292093    4.83410982785481    6.74430629343464

