99
CSD_code = OVINUD | q = 0 | S = 0 | Stoichiometry = C40H57NZr | MND = 12
Zr        2.20549136761490    8.37127141116626    4.24484156632803
N         4.27010813635721   10.83097163951506    0.54617664226441
C         2.62895398699850    5.95502128797766    3.59683561954295
C         2.29027983195879    5.87666509536870    4.96851093113341
H         2.91955709528295    5.43628171110020    5.73173525445134
C         0.93420151816014    6.22133695094390    5.18493210413412
C         0.38196630441667    6.53551832128027    3.90472085245432
C        -0.92084024329653    6.83576245001532    3.44864090253944
H        -1.73640513348828    6.96433458148788    4.14468303221095
C        -1.17458507699942    6.91207504968005    2.10241974102887
H        -2.17786748355952    7.12188250723519    1.76031382207458
C        -0.16271297551248    6.69824905782451    1.15094704662880
H        -0.41291820172566    6.73747080905992    0.10114185246583
C         1.12270749659650    6.42459685754681    1.54169855564220
H         1.88218365972724    6.22494451048434    0.79733651668786
C         1.43367604659454    6.34922472461084    2.91335649150848
C         2.82920873795644    8.84403887399055    6.62483202289529
C         1.43003970050467    9.04962083860201    6.48847969146661
H         0.68014761686024    8.49083808297812    7.03467678970154
C         1.17817064950645   10.21002693444641    5.71955640421306
C         2.44536797744487   10.80265666603652    5.43985130456864
C         2.78968121280773   12.04185736346800    4.87275307018047
H         2.02270494763652   12.69268488734268    4.47369860463172
C         4.09949259810163   12.44924741468605    4.88505015946561
H         4.36692302336960   13.41925595510575    4.49039054799180
C         5.10381952030928   11.63303168797515    5.43078596813189
H         6.12371585274078   11.98969982015587    5.43086071714166
C         4.81091909900867   10.40817340806141    5.97489993096730
H         5.60539672982739    9.81689873171132    6.40598202782517
C         3.47565648432625    9.95958387059352    6.00580498624858
C         3.78814479223681    5.24810307085647    2.92570877243446
H         4.08070815561879    5.79635045148932    2.02169586850677
C         5.02215610302491    5.10409913470711    3.81623215659400
H         5.39615827553929    6.07490528338366    4.13610196634649
H         5.81507495191701    4.60257525005101    3.26502850948971
H         4.79746264682472    4.50498440475041    4.69562880005919
C         3.31391854153080    3.85040161933222    2.49681244679058
H         3.03041520258700    3.26834540182064    3.37115842508841
H         4.10612611943422    3.32260982587267    1.96985252797612
H         2.44876287144971    3.92358404871553    1.84329503420831
C         0.23539195622757    5.76954716133563    6.45454527956442
H         0.86372623799580    6.04008270103216    7.31541089392257
C         0.13730675797993    4.23521976768664    6.42446804175402
H        -0.43442941739481    3.91859375926620    5.55472981690996
H        -0.35865769085831    3.86739632706007    7.32079885155951
H         1.12389696749582    3.78283452547594    6.36475950522151
C        -1.16388718227369    6.33396001291200    6.69328659497710
H        -1.19287948096250    7.41361030415032    6.57314048947852
H        -1.48602384324958    6.09608593955401    7.70625191560930
H        -1.87648015953165    5.88660184561351    6.00548450135322
C         3.46020949606729    7.85083091523999    7.57267224614022
H         2.74081408727993    7.03942973145964    7.74855514242302
C         3.73410468339205    8.52046598359260    8.92633487422946
H         4.40105589967868    9.36945415578135    8.79682808589026
H         4.19289595724062    7.81505016680612    9.61658310907608
H         2.80672063065673    8.88267335122806    9.36428976225881
C         4.75236524976169    7.24316547055648    7.00692054709348
H         4.69887371328741    7.17950405661806    5.91582238794430
H         4.92255503364050    6.24831782216007    7.41565131733740
H         5.61155617750985    7.85379129146682    7.27251947317816
C        -0.14741398122723   10.90693527499279    5.53125116038450
H        -0.01396182362157   11.69485178727924    4.78067594003518
C        -1.24554459761975    9.96423810705948    5.03532552394029
H        -0.89694891245370    9.38494197514821    4.17614068071784
H        -2.12358105921551   10.53434741303523    4.73701503528994
H        -1.55098148176407    9.28475085327107    5.82842727369277
C        -0.57214001212011   11.57727810327223    6.84473747290417
H        -0.71568134472012   10.83110900026804    7.62339949622985
H        -1.50378305683280   12.12350027750291    6.71245585251671
H         0.19558822038674   12.27237540566857    7.17601617031203
C         1.37403612261158    9.57781698090370    2.58229434550496
H         0.47736713942003    9.09595719022885    2.15515953411640
H         1.07460448381653   10.60414735455528    2.84662441604320
C         2.43918258988705    9.68042655922138    1.47001591105331
H         2.00779481993053    9.44173839483011    0.48702948771041
C         3.08901205600696   11.06188030967716    1.35899456756480
H         2.42820635276148   11.77535793707658    0.86042966496718
H         3.31697795640783   11.44204673286063    2.36977112662925
C         4.73597576488427    9.46747820841711    0.77817960290556
H         5.72145184995162    9.42975816850497    1.25613419905758
H         4.81643483393545    8.95829152293840   -0.19196717014420
C         3.68178653076330    8.78390529875899    1.67456971589399
H         3.49328334000823    7.76835817364876    1.30747595591163
C         4.08932912193254    8.73577357864498    3.15825461301056
H         4.92236338169205    8.01975169470003    3.26386998878135
H         4.49783030032445    9.72560731866797    3.41926039546656
C         5.27937346899175   11.87932111729955    0.47940068425827
C         6.09246458664540   12.05579403984444    1.77656684671183
H         5.42918209802257   12.21127337466966    2.62305650186114
H         6.74744462440632   12.91870827210621    1.68626395873669
H         6.70959732419403   11.18376235428397    1.97897230959411
C         4.58451452705772   13.20728129169879    0.15386169617636
H         3.92516372172936   13.08148285382411   -0.70069988672363
H         5.32688595068091   13.96401915575753   -0.08834717831041
H         4.00167742329796   13.56020118430245    1.00018640169513
C         6.23200767223021   11.54302304365884   -0.67628774579245
H         6.79590329682545   10.63759290822651   -0.47063952028050
H         6.93644500211546   12.35681875624940   -0.83039154685362
H         5.66166849478159   11.39390274737140   -1.58916398060952

