82
CSD_code = OVIPAL | q = 0 | S = 0 | Stoichiometry = C30H49NSiTi | MND = 12
Ti        2.16850064809480    2.17182301531232    7.60649019497004
Si        3.15168309331479    2.83881730802749   10.58411505121139
N         0.41273066275734    0.11021254720667    4.03342402224169
C         3.22183950227314    3.77031930245620    8.94021805897144
C         2.08606359616827    4.39555824481798    8.34884886794313
C         2.33222164829593    4.56471645924022    6.96559294601274
C         3.60207720219110    3.99969698742264    6.67484773577775
C         4.12766835082966    3.47717235360012    7.88198013680572
C         2.03589518665778    1.52966826833155    9.82028627013068
C         0.66681470835198    1.71280403107765    9.49913214484929
H         0.02879007649363    2.45337630073511    9.96189706744373
C         0.21199361552979    0.61638809447500    8.73578930214528
C         1.33280435434036   -0.19670601665664    8.48299584634852
H         1.32735098040996   -1.15175127126040    7.97825134603729
C         2.45877265848532    0.37860487250006    9.10789140471297
H         3.42932829986444   -0.09691830775252    9.20832999544786
C         0.92343759074952    5.02815454165223    9.05934148829337
H         0.97550850387531    6.11534606993612    8.95908381433930
H        -0.02851408543354    4.70140211651190    8.63206054697512
H         0.93289870427576    4.79032776188455   10.11817771497737
C         1.53647185922336    5.46256078230569    6.06235365044636
H         0.50505606911450    5.54400066592618    6.40023199192126
H         1.53223489314332    5.11133495815546    5.03213879184438
H         1.97244540455740    6.46526376004817    6.07251634228256
C         4.36113617927619    4.17178632805175    5.39096431787557
H         3.75679423232392    4.69362419792459    4.65302672461026
H         5.25743560878839    4.76971210662136    5.57173216691171
H         4.67556702977039    3.21974180083467    4.96294166554974
C         5.51017514484320    2.91252399843852    8.04885624175352
H         5.49556402451282    1.82923272055464    8.19602704027004
H         6.11555422746730    3.12404167689423    7.16864421035044
H         5.99619462919016    3.36363972547715    8.91321463422125
C         4.79158198452555    2.10577099511210   11.23166511371469
H         5.24745728387273    1.40957864231079   10.53750572042798
H         5.51182145246364    2.88844339024312   11.44502280008706
H         4.60706912303785    1.57191409238940   12.15844080786709
C         2.38287326376313    3.79220723183831   12.05386041572810
H         1.30369255182095    3.68969937267945   12.09436179148748
H         2.77727423476827    3.40644882000502   12.98769396260705
H         2.61918004474169    4.85045287952485   12.01219043568780
C        -1.24077049974435    0.25564106664731    8.50673764497005
C        -1.73807829792598   -0.42455620864067    9.79572691509650
H        -1.15157296552654   -1.31700987474736   10.00212259746582
H        -2.78359574646137   -0.71030983702304    9.69632468604190
H        -1.64079125587718    0.24878331573205   10.64433763242324
C        -2.09628770570962    1.50252613908624    8.25029437360220
H        -2.09303535242903    2.16012780732001    9.11625325137701
H        -1.72535845560717    2.05759195191052    7.39170945198493
H        -3.12714096633506    1.21192128070460    8.05529964171486
C        -1.41571037105699   -0.72536736840776    7.34242571594049
H        -1.03140406903762   -0.31095857239979    6.41311787702515
H        -0.89762199663118   -1.65939682130828    7.54582960461392
H        -2.47228380081438   -0.95133699318609    7.20644720151591
C         0.76219034462108    2.23735004719290    6.10343058176197
H         0.11607224678394    3.12754567714414    6.06297606327183
H         0.11301650185052    1.36301632336385    6.20464157753731
C         1.48043643221556    2.06652801999226    4.76498815000550
H         1.94614210370579    3.00031963878065    4.43568991237574
C         2.50981633782204    0.93473595725484    4.89998715940566
H         3.22433985806232    0.99846840798522    4.06473765482883
C         3.24248972559988    0.97954238905348    6.24852491357353
H         3.39731424823079   -0.05466607141876    6.58899287551133
H         4.24857238348714    1.38795700432573    6.08185885619577
C         1.64688533341991   -0.32148037284399    4.68911055401094
H         2.19909473637454   -1.06613084695299    4.10425680505114
H         1.38845595880519   -0.77422201000089    5.65417412256744
C         0.54335808318477    1.51507402095058    3.68493182682546
H        -0.43517646009588    2.00151032290198    3.71128121584384
H         0.98389133999892    1.67458050905158    2.68558161224428
C        -0.16720721972079   -0.78320133851856    3.03816970679817
C        -1.53264875767700   -0.22122450760904    2.62047920521142
H        -1.42140637980955    0.68289147560631    2.02818399020233
H        -2.06836087632715   -0.95459637282023    2.02284587464655
H        -2.12363182610779    0.00767725166947    3.50338753899460
C        -0.39889223625018   -2.15016293936403    3.69612125267640
H        -0.93847470851767   -2.80368582464197    3.01495641649059
H        -0.98556323603550   -2.02903599088882    4.60235878312450
H         0.54059805442149   -2.63017389194417    3.95422665668552
C         0.69970163419855   -0.96942829709220    1.77715995417503
H         1.67409296608183   -1.38122395785529    2.02898894671583
H         0.84774420483613   -0.02086966480997    1.26630911871699
H         0.20815615129612   -1.65314166904604    1.09007929948797

