73
CSD_code = OVIPUF | q = 0 | S = 0 | Stoichiometry = C19H47N4ScSi2 | MND = 6
C         6.95818682793681    3.78785159799519    8.75914808882832
H         7.95860944920980    3.30177052453651    8.82671788780763
H         6.60030413895579    3.83781630748012    9.81841842773716
C         7.16629229822079    5.20614210954478    8.21794541662613
H         7.61890263441702    5.84112404957116    8.99963949463281
H         7.86071900689022    5.15425939038971    7.37516021981056
C         4.95131059372580    6.00204292185836    8.79541429300751
H         5.09236712811690    6.98852710985199    9.26838729236016
H         5.11737700599790    5.24947505712596    9.56412795569575
C         3.50422797452353    5.91557008724149    8.30245492801613
H         2.83530227819296    6.14982226715407    9.15043285833239
H         3.35225799367169    6.68122293604967    7.53816484151683
C         3.01532869308606    3.61122210700725    8.76256219507864
H         2.20024461317680    3.88268606519453    9.46050781319814
H         3.95033467585774    3.58679768880075    9.31625320975725
C         2.72542274165659    2.20054961318848    8.23689125137264
H         2.75723490073846    1.51028755584786    9.09436747035590
H         1.70516413839204    2.17254033604130    7.84594223611477
C         4.76065825408436    0.97183917049556    7.72857245937876
H         5.31342297155516    0.56132708039548    6.88060817429058
H         4.37665835613172    0.13093419857955    8.33321497189737
C         5.74199778049030    1.79483751263811    8.56559876553998
H         5.32780543078862    1.93811524923685    9.59508527210032
H         6.65448515482663    1.17198483904862    8.70896391782507
C         6.06403468837354    2.37989797307188    4.55139426418642
H         5.93732616204035    1.32001077434288    4.81819697562881
H         5.50569218647430    2.51941470109648    3.61543109076581
C         8.93165669431169    2.00945404210303    5.68119192456951
H         8.44252235427294    2.25244035641320    6.62016575584870
H         9.92956958923477    2.43712891844879    5.70113904069588
H         9.04017954118703    0.93027988791507    5.63518699957706
C         8.61249932074227    1.87396335516508    2.61797059450031
H         8.49481955549613    0.79433557429509    2.62644863428451
H         9.67132510479213    2.08599318817720    2.50066506540305
H         8.10505881591775    2.24884982343062    1.73413180705024
C         8.23199489956082    4.55301001633162    4.05678419400954
H         7.87455708530220    5.07519648515694    4.94337837189687
H         7.71575100090219    4.97169613087173    3.19882600438518
H         9.28985620806825    4.77040345644058    3.94216958185239
C         4.41650846896587    5.37337815342153    4.71344316882631
H         3.92536970179012    6.18483691698821    5.27060598707700
H         5.35669993443082    5.82006443866527    4.35017402155715
C         2.31413876697724    3.45437640613227    3.34978593132942
H         2.91781261502634    2.62890179173894    3.71867943836294
H         1.88821147938797    3.15449958780730    2.39689281813617
H         1.48663121646359    3.60000980639747    4.03879298532489
C         4.47221865539560    4.81971044978133    1.61843021492032
H         4.91898283586444    5.76116215784470    1.31375187267195
H         3.90510600542164    4.43802586961408    0.77468942472688
H         5.28202743918274    4.12434876196003    1.81559942373793
C         2.11654621282950    6.43330247111204    2.75925767092035
H         1.41174597905345    6.57963376562747    3.57360601212159
H         1.53848642301191    6.20156475254044    1.86982297686191
H         2.61444370073153    7.38271890642506    2.58664280346745
C         6.22629106128058    7.07774688112039    7.08373316268422
H         5.31420987630244    7.54070118381589    6.71388385467151
H         6.89511709816340    6.92330101639422    6.23905676897410
H         6.71021562815470    7.77129841075492    7.78988994018762
C         1.86115024889885    4.77999218717582    7.02121481399531
H         1.59712284727824    3.86099797503542    6.50590077110230
H         1.93709249906848    5.56260792128241    6.26970097911009
H         1.05663817923520    5.03976774255039    7.72720044831897
C         2.92613469251969    0.92600857742097    6.22177354140192
H         3.60184210774325    0.61967884393731    5.42509923823373
H         2.10915138923616    1.48932855553202    5.77346766101788
H         2.51272694878535    0.02210498370027    6.69470931502051
N         6.04303465546731    3.05020216747956    7.93994804148981
N         5.92097133123241    5.79922529785887    7.71611281154530
N         3.14217803132484    4.62145705455066    7.70911555489252
N         3.64616755840033    1.76027510076950    7.18235837541802
Si        7.88861162612157    2.67035306944489    4.21405396743164
Si        3.38355123452961    5.04406941800054    3.17821182012224
Sc        5.13310530440411    3.73642891858534    6.17603443840360

