92
CSD_code = OVIQAM | q = 0 | S = 0 | Stoichiometry = C33H53N2OSi2Y | MND = 5
Y         0.29732344665715    4.67304213578713    6.48657352310447
N        -0.82644997188759    3.89423087024798    8.64284235511148
N         1.29110433694270    2.71279110112680    7.35078057803054
O         2.54020684082881    5.04347688888554    4.85643991883938
Si       -2.71971956084636    3.56490056054706    4.99512401835086
Si        1.33198030562124    7.61092692137198    8.22968396210994
C        -1.81736191692159    4.48538247004103    9.28204149834516
H        -2.05739431657961    5.49606842496828    8.97238569336838
C        -2.53599476343617    3.87556954821596   10.31613323343182
H        -3.34267528072501    4.40873439622590   10.79543882659734
C        -2.19536893350525    2.60562523164150   10.69384865499454
H        -2.72901647707665    2.09387029185943   11.48260258670334
C        -1.12374857003818    1.94485783876525   10.05609421571423
C        -0.70826296408110    0.65625464764376   10.41558893909601
H        -1.22505312186004    0.13470445390515   11.20655658393543
C         0.35426019829655    0.07977148636736    9.75625992507308
H         0.67584782881242   -0.91599268886578   10.02921318543011
C         1.02785319755006    0.74538013048807    8.74677988305595
H         1.85692133015066    0.26142029851977    8.25066467810893
C         0.66263292013356    2.03555676378092    8.33228503505317
C        -0.45533667076107    2.64792918034535    9.00979522974537
C         2.49636831274114    2.16733424381913    6.86354974342269
C         3.68372707098572    2.31961814123424    7.60470565870801
C         4.87239029437158    1.82554024185031    7.08761914205993
H         5.78731577573348    1.94003040966618    7.65017187265001
C         4.90577458823629    1.17626488829236    5.86770326196522
H         5.83824338868077    0.78925379749471    5.48364335097160
C         3.73512754426458    1.01005512987212    5.15170772596494
H         3.76388195467825    0.47465286211012    4.21382652466777
C         2.52657215494746    1.49484074016441    5.62976202945525
C         3.68154312920037    3.01754629664320    8.94633677971124
H         2.65927359715134    3.34083024451318    9.16784818245960
C         4.57008230473398    4.26320451506519    8.91882645933082
H         5.60514466506581    4.00276132816201    8.70903937620372
H         4.53273747346500    4.76778317115313    9.88189518968179
H         4.22358869772655    4.95711264938198    8.15585841676567
C         4.11857311416004    2.06225824667650   10.05877929324690
H         3.46296474710042    1.19499253621146   10.08931836482174
H         4.06864424737627    2.56392755326081   11.02305202253814
H         5.13898862261584    1.72039125626062    9.90152881466803
C         1.24959188822263    1.24470309127175    4.85953217886467
H         0.44814165957478    1.84263975750337    5.31442613209960
C         0.85854165043199   -0.23176980738718    4.96944103448730
H         1.63875812389813   -0.86885389975855    4.55735674370871
H        -0.06425651946597   -0.41973746477719    4.42412437853280
H         0.70430877972045   -0.50480736269178    6.01081158440400
C         1.37184395342278    1.66257104806715    3.39318206069142
H         1.67652894391858    2.70490356647227    3.32768514533508
H         0.41127688253340    1.54819039405980    2.89407623871203
H         2.09918250415494    1.05037238583445    2.86443665754988
C         0.14000386577982    7.00045107117937    6.90989761655720
H         0.30011310810691    7.57114693913274    5.98691354308768
H        -0.88954852617300    7.22087122306551    7.22008145552844
C        -1.06326586271796    4.35014840969869    4.56159846645744
H        -1.25126805210153    5.32269092698884    4.08774177063446
H        -0.54443427415759    3.73969385056786    3.81610828838930
C         1.35451194573285    6.38991514623493    9.70767496635333
H         0.40118748603317    6.38809661513360   10.22846164477245
H         2.11856691589357    6.65310407386630   10.43319212280988
H         1.55020111480559    5.37068637242381    9.37581245703250
C         0.96642148732815    9.34946982776144    8.95452834306561
H         0.96685468394981   10.10715578641503    8.17713722649266
H         1.70350741920251    9.64077097951295    9.69668214292861
H        -0.00751823765545    9.37536036648129    9.43342708909565
C         3.09423779588271    7.68097812003702    7.47882279094192
H         3.30804647047266    6.77098003742622    6.92491671201339
H         3.85556623221902    7.79260527078640    8.24402428166784
H         3.19384179110775    8.51730358866910    6.79416193514345
C        -2.47830469339683    1.91705772883686    5.94413665920934
H        -2.06227029372725    1.14766812396347    5.30164463658144
H        -3.42480007494366    1.54191151873761    6.32193544083118
H        -1.81108743701404    2.03449829999428    6.79498445182001
C        -3.85302275181845    3.15952448916038    3.49875701506205
H        -4.04932320442864    4.04574591903635    2.90343493764772
H        -4.81092551899202    2.76101851906397    3.81849487461997
H        -3.39474726954679    2.42331690175269    2.84561816458721
C        -3.67779217042393    4.79385647248327    6.11430958156599
H        -2.98834943436582    5.39531517780329    6.70433539133852
H        -4.34181596587541    4.27884314884622    6.80113006349962
H        -4.28338104385842    5.47272306619039    5.52266774511355
C         2.39419977639536    5.75269053857004    3.62776724144550
H         2.63459982291695    6.81202484275368    3.79370164473760
H         1.35362840034293    5.66574470399351    3.31112445774948
C         3.39233866083453    5.12277491253943    2.63810850025759
H         2.88439073099830    4.47810593970435    1.92327525445047
H         3.92237028165829    5.89410085161976    2.08278457350588
C         4.33860824261707    4.31483948477770    3.54099347526958
H         5.38734343063911    4.51922763210295    3.34064210224792
H         4.16459545860499    3.24557730447872    3.43271970543629
C         3.93286495589657    4.76104758912219    4.94698612332564
H         4.47623427238542    5.67553175058671    5.22653798579394
H         4.08031305448455    3.99561556618181    5.70665023303518

