76
CSD_code = OVIYOJ | q = 0 | S = 0 | Stoichiometry = C29H41NO2P2Ru | MND = 6
Ru       20.24166573566640    0.26864916376775    6.19388177222797
H        19.89295034266316    0.58832852882002    4.71232624507704
P        21.65441926873238    2.04126447016342    5.75294171584383
P        18.45132870498204   -1.14035333356761    5.81208308694292
O        20.50449282069569    0.06363258487814    9.17553260554956
O        22.33600146496429   -1.83857670483103    5.86931748781214
N        18.78850069028211    1.74336467899441    7.10436491709004
C        20.53682535319845    3.48496915287720    5.54046614241891
H        21.06301458456351    4.32880012179561    5.08462140618796
H        19.72675689852833    3.15315953342815    4.88318445455349
C        20.02610407648321    3.84633926942697    6.89836506097319
C        20.36785392819996    5.08577295908268    7.41969220884778
H        20.93212263240018    5.77248651998132    6.80235802722763
C        19.98747301220415    5.47192002129112    8.68885512084712
H        20.24892573361470    6.44656911136967    9.07129426594250
C        19.28121233174312    4.56960495081923    9.46335536885289
H        18.99768387776803    4.82682824512626   10.47460018109371
C        18.94118942637039    3.32617933485924    8.97131075916779
C        18.22245433795713    2.34376863877990    9.84013648083682
H        17.74163911391417    2.84121214623663   10.68541693498316
H        18.93689291329516    1.61814761330951   10.25069844394822
C        17.21916169118823    1.63708495326228    8.98531445209905
C        15.97244841565024    1.32789546712482    9.48912367203581
H        15.72682568262696    1.62984955344437   10.49798498648903
C        15.05223264264951    0.62851685063551    8.72956980634813
H        14.07458012316032    0.39225528831644    9.12043469560821
C        15.42543750256662    0.21939523685021    7.46547485237648
H        14.72564781662371   -0.34283257732016    6.86107047364623
C        16.66808780367029    0.52970139031282    6.93241343966209
C        17.01487908470814   -0.01618952799804    5.58433145329706
H        17.34752322042091    0.77442202402009    4.90433238965919
H        16.16334207968325   -0.54674150761214    5.14824668296894
C        19.26618509365274    2.92868930041654    7.65646442790559
C        17.60183054083936    1.28863847206400    7.67190714155238
C        22.66477674731079    2.07911881562644    4.18374662573647
H        23.36849367590862    2.91257409211290    4.29874152620557
C        23.43881724181594    0.77657899484818    4.00957347256057
H        22.74447230582270   -0.03631408619300    3.80103144737659
H        24.00387496806665    0.52180593385667    4.90328472850733
H        24.13307473718002    0.85718452410488    3.17380820173150
C        21.79807570789994    2.33342980521511    2.95385979956885
H        22.40433614692061    2.23502343789793    2.05450791294938
H        21.36513471262918    3.33039350779679    2.96144259474767
H        20.99321692952336    1.60238468230709    2.90211533345461
C        22.82259057866969    2.61020336572202    7.09391808719278
H        22.12413786673241    2.86899765651410    7.90540360111258
C        23.71219410308418    1.46792610341558    7.57829707605242
H        24.53831523054408    1.29594043969352    6.89069608573216
H        23.13896033372412    0.54271930693080    7.67067794194487
H        24.13304348768461    1.70771923898678    8.55346687785963
C        23.65572728902847    3.84258660950439    6.75799875778878
H        24.10633186591760    4.23069679896830    7.67010965207413
H        23.04482168317638    4.63061270849713    6.32569844385887
H        24.46098928566060    3.59826760515995    6.06805882830031
C        18.38688403028203   -2.19462267167932    4.27298445313635
H        17.54957350036955   -2.88820047925890    4.41810014551655
C        19.68131441943617   -2.98351839501235    4.10446674034897
H        19.58314511177655   -3.70394631479835    3.29328841800834
H        19.94627858961352   -3.52090308646568    5.01212943080763
H        20.49554486872558   -2.30244803215555    3.86059056646588
C        18.12444940370019   -1.36070320380265    3.02229520423921
H        18.85999881697165   -0.56241523295279    2.94024924203584
H        17.13038835216853   -0.92122966153745    3.02840664971843
H        18.20921211410849   -1.99237752547266    2.13925696587673
C        17.88902918264499   -2.26509243309071    7.19231841193875
H        17.65411377058236   -1.54232520705166    7.98964358098118
C        16.63934034609539   -3.08849191102416    6.89942419806731
H        16.85875613575441   -3.91205798720427    6.22287582348283
H        15.85110484372684   -2.47621533815891    6.46980275129697
H        16.26370954537564   -3.51346971323224    7.82881229532810
C        19.02713848406714   -3.15829513579412    7.68003402564471
H        18.80077019550501   -3.54732320973539    8.67153131808984
H        19.96270104325498   -2.59726913601356    7.73759831608333
H        19.17230277948811   -4.00646250054990    7.01344180313294
C        20.44729573224290    0.09821275898698    8.03111817369789
C        21.52377489115868   -1.02124705509636    5.87552333127367

