53
CSD_code = OVODUZ | q = -1 | S = 0 | Stoichiometry = C20H24CoN4O4(1-) | MND = 6
Co        0.00001017063502   -0.00000949754705   -0.00000358181697
O         1.52480107203668    0.83083553951868    0.79716914678984
O         2.20825488771883    1.20154940723358   -3.23335819049869
N         0.89211558226020    0.15921807833990   -1.69356986142768
N         0.94933999630125   -1.72848492832449    0.27654869015837
H         1.88256725666579   -1.40617825632683    0.53969067520307
H         0.52216135595597   -2.14950062445985    1.10276195938675
C         2.01002606771281    1.92408544868725    0.28896266469702
C         2.55190420793316    2.90419923101727    1.14974502201639
H         2.56225226859957    2.69278660562895    2.21110733412217
C         3.04694500119355    4.09598283266870    0.66791857695566
H         3.44313666144794    4.82883699458853    1.36113197202098
C         3.03587849577011    4.36407944581715   -0.69313046623118
H         3.41623880113201    5.30389126496557   -1.07063055077916
C         2.55540652807153    3.39957114804671   -1.55996770795573
H         2.58056665291220    3.55622158790664   -2.63014661826127
C         2.04553847955182    2.19482990921097   -1.10130922784593
C         1.70353742517003    1.13778697449069   -2.09919372112543
C         0.79635390113373   -0.97692438300860   -2.58361646677894
H         1.17089036463642   -0.67143837720392   -3.56838876386608
H        -0.24660355032085   -1.28830487056458   -2.66908798204252
C         1.64381921684763   -2.14408230909836   -2.06096306998277
H         1.69888282842034   -2.93016196541167   -2.81833925690414
H         2.65569016027114   -1.77712335362405   -1.87103092560602
C         1.05883642073399   -2.73540023499051   -0.78142923961876
H         0.05761784488509   -3.12367533638597   -0.98743813251857
H         1.68875706839583   -3.57338611446638   -0.44125537875527
O        -1.52475958310991   -0.83086526241053   -0.79716473910919
O        -2.20819540643496   -1.20155227202176    3.23339186483644
N        -0.89209371884602   -0.15922683674234    1.69356301107623
N        -0.94931997132344    1.72846732404079   -0.27656947576662
H        -1.88254182212656    1.40616628534678   -0.53973684279221
H        -0.52212116476154    2.14948017467213   -1.10277345595819
C        -2.01000982865296   -1.92409812790375   -0.28894130664173
C        -2.55191799080146   -2.90420268796582   -1.14971971297247
H        -2.56225349693597   -2.69278105324129   -2.21108058094012
C        -3.04700320030345   -4.09596447684913   -0.66788674527128
H        -3.44322033952106   -4.82880444080499   -1.36110076319828
C        -3.03594447510752   -4.36405024349245    0.69316553598471
H        -3.41634076237513   -5.30384816014972    1.07066453719426
C        -2.55543221721262   -3.39955439027890    1.55999766404316
H        -2.58060239711496   -3.55621063773567    2.63017532814893
C        -2.04552561019011   -2.19483235152312    1.10133356393562
C        -1.70351256692219   -1.13778611153188    2.09920741736297
C        -0.79632944921920    0.97692468871642    2.58359644050065
H        -1.17085834250876    0.67144972819912    3.56837524081277
H         0.24662527857680    1.28831637039680    2.66905628039200
C        -1.64380524526488    2.14407111975422    2.06093636087391
H        -1.69887166291323    2.93015755502058    2.81830584430323
H        -2.65567506596465    1.77710425929658    1.87101132899623
C        -1.05883216487749    2.73539104678889    0.78139825284598
H        -0.05761819409423    3.12368119660189    0.98740415290564
H        -1.68876576806627    3.57336308710878    0.44121389910221

