93
CSD_code = OVOHOY | q = 0 | S = 0 | Stoichiometry = C29H54BCoN4O2P2 | MND = 5
O         8.06377232118954    4.99976721118544    4.94554469757559
O         7.66063047805748    6.23045802042350    6.79496414042597
P         4.39599886981169    4.07785845524392    5.87903005423272
P         6.62773020468360    5.08769421787645    9.19275484799990
Co        6.23194235505691    3.84684262398210    7.17103252396149
N         4.87895152468453    2.88513081590524    8.40565013112383
N         1.94780814949564    1.27378402016190   10.86826017919918
N         7.30712990855592    2.61104727585618    7.05453636782949
N         7.88232332635817    1.64230593926218    7.04872694307869
C         3.64711315949646    2.45174049207918    6.40097399751902
H         2.62161061235985    2.30286192481113    6.06044262900850
H         4.29400916364234    1.69314067604927    5.94823931264302
C         3.76515551035844    2.36175216547926    7.88576452827855
C         2.76854700929674    1.81363654545979    8.66608661263545
H         1.89797369884073    1.39187394089933    8.19081208513993
C         2.89778847563113    1.80705450036695   10.06455543586540
C         4.05406731788722    2.40934600559534   10.58534548075061
H         4.20202875951568    2.48479144969777   11.65057028589927
C         5.01181655989795    2.92514305752096    9.73418202937472
C         6.23753926058106    3.59628196463528   10.25686511804606
H         7.08562260935663    2.91913207752205   10.11721749223743
H         6.13537212481266    3.83608073944959   11.31698402443490
C         4.46384328077533    3.83243217261331    4.02154123277265
H         4.51679635075054    4.84844099245058    3.60820813885964
C         3.25367225873509    3.11869846148846    3.41909648648379
H         2.30886125891612    3.54323792414673    3.75159383411469
H         3.26646036021818    2.06174705708842    3.67410642197831
H         3.29068502098624    3.19848694421111    2.33321768952662
C         5.74166310453553    3.09068551867502    3.64280646380363
H         6.61699364603363    3.62470535182953    4.00268206404718
H         5.81057881469339    2.98706426718928    2.56057140329953
H         5.75178907341798    2.09429190652099    4.08102055110507
C         2.93030706797472    5.26522883310753    5.95833727986057
H         2.30063879394001    5.14688354311622    5.07047992864592
C         3.52854163397628    6.66952082924184    5.95166554647103
H         4.05398692474920    6.85312494536197    5.01541041496144
H         4.25047242263006    6.77062444637653    6.76194981454299
H         2.75667217408880    7.43004890980682    6.06744290688690
C         2.08197291056597    5.03125200886723    7.20281445086677
H         1.48319740537309    4.12810505295318    7.10773002939512
H         1.40434028281488    5.86978231808277    7.36389129013983
H         2.71301654187903    4.92816579540796    8.08263479030612
C         8.40367102189155    5.40311386064966    9.71416870304970
H         8.63368538403767    6.37623551750895    9.26862988228555
C         8.66259470513095    5.46852273501670   11.21823800792069
H         8.10368435024318    6.26659876915824   11.69909720882193
H         9.72195984169818    5.65931641404771   11.38990414721691
H         8.41479068052862    4.52579800332890   11.70069967058391
C         9.33561423730948    4.37612514665767    9.07840869262880
H         9.15879662301294    4.32099863770046    8.00726858022943
H         9.18099293882567    3.38402565921210    9.49875208820753
H        10.37577845826269    4.65382862303756    9.25022584432961
C         5.77210633483474    6.42143692205981   10.21430563628054
H         6.02954521907198    6.29757304885591   11.27161390586360
C         6.21202581946252    7.79548377016519    9.71961954865057
H         7.22876523594801    8.02218336732554   10.03112259045095
H         5.55527386499392    8.57378603184477   10.10872200232199
H         6.17493015078871    7.81826500662379    8.63151859830701
C         4.26356617271429    6.27012011654925   10.06536801084508
H         3.93696312989275    5.27406187088373   10.36202750089018
H         3.97971737469430    6.43475490117594    9.02860662061489
H         3.73954582029698    7.00030792374554   10.68269511392915
C         0.69568570288025    0.72799881348896   10.38857878206477
H         0.86557993760929   -0.21205354880916    9.84534850535691
H         0.19644442428277    1.43184670232113    9.71639685436034
C        -0.11099999783080    0.48224199283144   11.66141787356752
H        -0.83824892288559   -0.31771171003136   11.54244904763671
H        -0.63584702459900    1.39287745905263   11.95257725876352
C         0.97268087158972    0.15448745397238   12.68479813954757
H         0.64279093740076    0.29454404213646   13.71173387850851
H         1.30299641009167   -0.87738141051707   12.56045458532076
C         2.09710916846217    1.11337703089415   12.29962894772149
H         1.97850163474402    2.07950463513910   12.80960592950581
H         3.08309965489828    0.70952127058411   12.54643131676658
C         8.34076167223729    7.12230816146616    5.91487070868594
C         9.42516001362720    7.87401371049811    6.68549947940125
H        10.08912970151508    7.18599248906673    7.19893920760468
H         8.95195243544954    8.51007334352316    7.43058328814168
H        10.00410099666994    8.49876077876011    6.00977845779468
C         7.30443142362319    8.13170952937123    5.40309645056270
H         6.50043950748952    7.61070801897499    4.89015071873065
H         7.75673720547250    8.86030464589936    4.73617965236747
H         6.87568019593796    8.65416876088908    6.25589108027605
C         8.87222952216538    6.16596064001949    4.78947991978826
C         8.71838903431000    6.69528849147861    3.36454947098495
H         7.67384250351666    6.85358365839311    3.11568497984276
H         9.12029478945405    5.95926649843812    2.67241942641667
H         9.26609213480172    7.62686850992295    3.24522820287972
C        10.32781192962619    5.73253756752843    5.00440333510982
H        10.45377720365205    5.31575552907432    6.00016973233106
H        11.01295109479316    6.56370183735825    4.86231319322287
H        10.56271323110299    4.95125768632510    4.28508970928609
B         7.43428451763115    5.01879968842982    6.16491985866525

