79
CSD_code = OVOJEQ | q = 0 | S = 0 | Stoichiometry = C25H46BClCoNO2P2 | MND = 4
C         6.46673061351161    4.19934274982991    5.88534849099117
H         7.34194381982570    4.85069675316627    5.87761524087052
H         5.76336804653366    4.55743034752643    5.12788083386014
C         5.77902253187528    4.22044262856860    7.21593769017746
C         5.91400011905684    5.31236975211226    8.04700043617533
H         6.56724677729858    6.12298846052155    7.76353940275127
C         5.21048226926729    5.39487945472012    9.25228952711853
C         4.32926294957244    4.33883957872053    9.50173810965093
H         3.71049915791370    4.37028557690429   10.38536986514036
C         4.23634485067700    3.26516244664684    8.64111131826408
C         3.21408995500873    2.19777296885797    8.89791622716515
H         2.27655010340275    2.49461505932846    8.41611263960307
H         3.01940434813666    2.07695604915745    9.96412772199894
C         6.97688208204848    2.37806557728487    3.67925839683507
H         7.59592745855338    3.21896724959007    3.34016458356209
C         7.57554749345029    1.05042959961538    3.22290672067735
H         7.04533810279567    0.22771365095004    3.69969969155176
H         8.63087182652353    0.97652755499443    3.47223762013447
H         7.47731382043434    0.94621710387965    2.14300265214279
C         5.55909116253448    2.51222398070607    3.12629663434357
H         5.55800997432139    2.39203099414280    2.04418992085851
H         5.12034295950783    3.48106437580612    3.35899579967144
H         4.93008451201201    1.73404338650896    3.56031181804654
C         8.56700703177304    2.32710682942963    6.23170796437705
H         8.45344221049519    2.82309426884932    7.20838917915816
C         9.63146923858787    3.06808602965823    5.42990813240935
H        10.56357946606241    3.09014134091591    5.99333246871403
H         9.33797167027294    4.09604310238161    5.22544413375184
H         9.82483038893782    2.57182540334246    4.48255186954269
C         8.95992307343077    0.87418994223104    6.48665824383832
H         9.20254889663119    0.36389765215339    5.55877153172286
H         8.13354432523258    0.33796791356067    6.95142134203110
H         9.82637848705196    0.82151148360857    7.14455373498989
C         2.25738928030209   -0.25534281971508    7.66887896396354
H         1.56279230685045   -0.15529921321151    8.51400036129603
C         2.56043546931915   -1.72501417725684    7.39348074162824
H         1.67759614796638   -2.22047290414385    6.99163384936610
H         2.86286185235947   -2.25051395962220    8.29625479062063
H         3.36289341323431   -1.80122661171661    6.66160500054668
C         1.65795220194010    0.39585173053866    6.42430861468269
H         2.36976861806828    0.31862930461736    5.60280359456562
H         1.43901160263319    1.45030068879163    6.58938470529452
H         0.73543420547724   -0.10342450999011    6.13234298506820
C         4.63264048737291   -0.28658914764699    9.42685800291568
H         4.93803975860080   -1.22767619001260    8.95298224324936
C         5.89374095275518    0.47829742851312    9.82372102911459
H         5.64118155863850    1.41607897507829   10.31772414761357
H         6.47973561790423    0.70970953941286    8.92976598217088
H         6.51038784228159   -0.11287398668019   10.49888552776962
C         3.75750573154437   -0.58880984825583   10.63811239290101
H         4.29550913736409   -1.24439644320010   11.32178696519713
H         2.83285214823282   -1.08429324094963   10.35239426922044
H         3.50888907951512    0.32107713739993   11.18069576928374
C         6.18743225243854    8.48976736846913   11.16771654887354
C         4.88768687617409    8.02982197961668   11.92326287921598
C         6.19663939263442    9.95356585128451   10.73384415646100
H         7.14172154691179   10.16881888004789   10.24137187846450
H         6.09577511698992   10.60224268459450   11.59963727741648
H         5.39655737994572   10.16046141135283   10.03044084504072
C         7.47067969591722    8.19099212502886   11.95322430962601
H         7.49581302770082    7.14562636774135   12.25104290394525
H         7.55005817702013    8.82563446115533   12.83056158701168
H         8.32382267294754    8.37565796148957   11.30434381399390
C         3.66531986045386    8.89318119670380   11.58598544037702
H         3.53558801807506    8.95824927035290   10.50843906629060
H         3.76052530619586    9.88974543673423   12.00613222907149
H         2.78065149172066    8.41651345544066   12.00217286334964
C         5.02501678104069    7.92966385179649   13.44051256276613
H         4.07051484669678    7.62247412184738   13.86079160226993
H         5.29765212401737    8.89551508727171   13.85691333151893
H         5.76890518750235    7.19087125387296   13.72065046073748
N         5.00779978825357    3.14991462197187    7.53120604146406
O         6.20401452242276    7.65125578362211   10.01244600307544
O         4.63937388735083    6.73317740098614   11.38033811327963
P         6.83933680936966    2.42619191651393    5.53304696213669
P         3.81879855929007    0.67276758736379    8.05896273615779
Cl        5.49973601728741   -0.39606962154425    5.78475908802473
Co        5.23086703045070    1.52421562843600    6.67243212672546
B         5.35554649609059    6.60110290023782   10.22345529411263

