57
CSD_code = OVOJUF | q = 0 | S = 0 | Stoichiometry = C20H31Cl2N3Ti | MND = 8
Ti        0.53091745888019    1.68283011483605   12.33569403058924
Cl        0.00254043845526    3.67714570129656   11.59980933255347
Cl       -0.60893998936909    0.58983072975696   10.80559260785442
N         2.15730847093376    1.54933134195720   11.72699813402089
N         3.53776293252885    0.68542457055707   10.03882468282245
N         4.24801258926999    2.46517728621451   11.18778510913189
C        -0.88951569671007    0.71038455291166   13.91993078703432
C         0.38262260470297    0.10499251008304   14.03606673812283
C         1.29851266460109    1.09620726412057   14.45895379357050
C         0.59424514862919    2.31725464096154   14.56945989886260
C        -0.75914697960591    2.07045851570877   14.24642691651317
C         3.21603187301083    1.57379834234233   11.02504146464544
C         4.92029966470836    0.85060099289396    9.64748320306101
C         5.23009934815332    2.27240023392441   10.13983012485767
C         2.74789620987545   -0.51926852870277    9.87923246852454
C         2.93250314929964   -1.49050987490107   11.05237908726350
C         1.95142806094137   -2.64842147118859   10.90242901918321
C         2.17933104639863   -3.36567642969170    9.57479290480953
C         2.04291523247297   -2.39158366091665    8.40812861355415
C         3.02137194455450   -1.22830231864725    8.55827078919564
C         3.97883079566585    3.73949813401084   11.82175631307670
C         5.21888021215330    4.31518865644427   12.49947781636406
C         4.82841969871111    5.56492447441028   13.28488775886434
C         4.19329417800542    6.60127553186894   12.36166003978204
C         2.98240635464300    6.01771057163350   11.63852348600926
C         3.37552476361151    4.76749792533761   10.85866494333557
H        -1.81568136530816    0.19123604453311   13.70590131369411
H         0.58807985682303   -0.95586092263841   13.95099387870630
H         2.32897789193738    0.92784501794239   14.75080106930337
H         0.99243444793036    3.24756089793470   14.95824050778341
H        -1.56644434877191    2.78785954749562   14.32648434865075
H         5.03699271216029    0.75203110198577    8.56665215061919
H         5.56520996832453    0.11098953765750   10.14219396828273
H         6.24290738725423    2.36208054140239   10.53875495585168
H         5.10070924489444    3.00369906969764    9.33156964395635
H         1.70134698688268   -0.17879489799024    9.89052942667873
H         2.74008936349292   -0.95044083246535   11.98638776063293
H         3.95899698452676   -1.86674857241069   11.06594995514283
H         2.07137501210974   -3.35048983473180   11.73018956743952
H         0.93408415291620   -2.25026894951646   10.93586487155848
H         3.18027298328765   -3.80479764151529    9.56686280970422
H         1.45830136411210   -4.17702671518120    9.46282543710250
H         1.02497398504723   -1.99891083043452    8.38449276601338
H         2.22856626062360   -2.91083487156611    7.46599986226886
H         4.04591603618244   -1.60835520108894    8.54232789195434
H         2.89881031983777   -0.52931088992062    7.72925185578327
H         3.21820016467408    3.50906748833911   12.58800618021786
H         5.96263304809039    4.57880921850549   11.74408444082882
H         5.65654583709562    3.56954750083567   13.16579036539612
H         4.11537922992198    5.28956677734504   14.06485282069214
H         5.71052594527812    5.98840571881726   13.76971547345998
H         3.89228679669171    7.47512018849174   12.94201813941730
H         4.93147247185847    6.92874697360563   11.62533092377237
H         2.56273322815325    6.75969488309324   10.95772771810538
H         2.20617149899863    5.75174209928734   12.35919529806419
H         2.49300357389645    4.33253671313816   10.38145511437202
H         4.10377678676077    5.02913103233160   10.08674942092668

