96
CSD_code = OVOKUG | q = 0 | S = 0 | Stoichiometry = C42H48N2OP2Ru | MND = 6
Ru        9.39355958396007    4.41711908659563    2.05200506990257
H         9.27985871215266    3.92432882732960    3.54454171732978
P         7.85107241201670    2.82142930113574    1.60043300947411
P        10.88937831817941    2.68893422477365    1.75733009220721
O         9.72182862603550    5.41204432978857   -0.75037371673546
N        11.78301382628295    6.48219356144797    2.61124458140861
N         9.88478143527676    6.84873113499450    3.55501180728071
C         9.55672386956284    5.04839308754892    0.33483904429422
C        10.53516204212122    5.97584851825595    2.75588903475632
C        11.89156942681336    7.66097602689951    3.30762127108919
H        12.78588397674682    8.24778278021352    3.32706045298742
C        10.69908709840358    7.88290807050316    3.90863137221084
H        10.39461048849879    8.68885986515214    4.54371697778501
C        12.81460023458633    5.93384388651915    1.75922473140404
H        12.49978403658885    4.90798927849323    1.51363987373627
C        12.91181761883722    6.74329351555008    0.46260564292562
H        13.16077121958078    7.78079870580139    0.70190472160098
H        11.94285668798627    6.73364709768839   -0.03951164630871
C        13.97938060156309    6.15409143253026   -0.45186795734434
H        13.68865587435022    5.14038631697915   -0.73464085146306
H        14.04904889629163    6.74947859855657   -1.36407872693311
C        15.33079161325172    6.12141395293666    0.25478993601814
H        16.08252188308139    5.68089716711923   -0.40271198715109
H        15.64588702959735    7.14231664888693    0.48495281327897
C        15.23764883334555    5.31486045103481    1.54624170719999
H        16.20145777147810    5.31731290813095    2.05986001384730
H        14.98824638146061    4.28090357262681    1.30739400948875
C        14.16890019851943    5.89252351136919    2.46874654825402
H        14.46557944852486    6.90280353930066    2.75789621106333
H        14.08816195691572    5.28762632363761    3.37454460139511
C         8.49261836073342    6.58774046379651    3.86666858907934
H         8.47523384018117    5.85409096320129    4.68909765184135
C         7.92304851845314    5.92359845894951    2.59975855744408
H         6.93539666517054    5.51176401060825    2.86831505999270
C         7.68210141304532    7.00581639822515    1.53702095437878
H         8.63587640180029    7.43174070852004    1.20357354176863
H         7.20044831780248    6.55931684623178    0.66368385513424
C         6.80759869293275    8.14927273418025    2.05431641288688
H         6.62050973558886    8.86727535319588    1.25160015387088
H         5.84366726731349    7.75501080152479    2.38609930986905
C         7.50646792965646    8.83787202139235    3.21882814839103
H         8.46354776822673    9.24058417798904    2.87772104673960
H         6.90509327541904    9.67183468061069    3.59018766331315
C         7.72940657445712    7.82808299920553    4.33746747893412
H         6.75728763820872    7.48611030256621    4.70057701052603
H         8.24638023970698    8.29098336599807    5.18253548027819
C         8.54023681618564    1.19563771497363    2.16235851448119
H         8.51024526287041    1.24909062036923    3.25682296648807
H         7.90386576876006    0.36246412958357    1.84380976171966
C         9.97776934962227    1.04208123333230    1.68626224565883
H        10.00153106789307    0.70598139882953    0.64454118754125
H        10.50783652587885    0.30707016286551    2.29961940840536
C         6.22216580995957    2.70363663287459    2.42109507427683
C         6.17429325923651    3.01683758511138    3.77658768985930
H         7.08212997990250    3.34442550577010    4.26564035678121
C         4.98716680697572    2.92139439900538    4.47687941201654
H         4.95830116514263    3.16658020269038    5.52905479253037
C         3.83224751804550    2.51442695534861    3.82777267970050
H         2.90161432312881    2.44156827870273    4.37175196818497
C         3.87242217220924    2.20399709618079    2.47915079516777
H         2.97299891750722    1.88668545274873    1.97081663573237
C         5.06050620861271    2.29689151387355    1.77489819173774
H         5.08065996171240    2.05333225585190    0.72199484724795
C         7.36276123320178    2.52882401618972   -0.13588179192436
C         7.53461922622347    1.35390589499482   -0.85762003558339
H         7.94622730369077    0.47136362120259   -0.38951533155443
C         7.17520013684278    1.30246313906076   -2.19468757039663
H         7.31860418783484    0.38661098227462   -2.75085982086906
C         6.63676255103046    2.41365626190905   -2.81957866272354
H         6.36178416279598    2.36670611602993   -3.86322706942233
C         6.45216561509638    3.58703373840100   -2.10373791342708
H         6.02976276965503    4.45620201358983   -2.58674675311537
C         6.81913391555128    3.64227580609367   -0.77449954368442
H         6.69304569640931    4.55190853004611   -0.19932274744042
C        11.82816960357306    2.51452834753076    0.19263382101501
C        11.07437052779025    2.52159698194570   -0.97959203460244
H         9.99376020070649    2.57904160680882   -0.91471837455233
C        11.68908663946532    2.46790922613138   -2.21430573668293
H        11.09025358939804    2.47322054285513   -3.11347268634699
C        13.07218110962908    2.41740309622161   -2.29726711006322
H        13.55704980443047    2.38074618340722   -3.26171897787090
C        13.83023484486719    2.42159815349609   -1.13928508180074
H        14.90916487520591    2.38782717120363   -1.19805280366281
C        13.21371515383538    2.47403253744412    0.09962467488369
H        13.81472370219582    2.47407741276592    0.99812372775679
C        12.17517079723440    2.27967719812383    2.99425835073016
C        12.37356341345643    3.15986192845925    4.04994970022520
H        11.74872508183760    4.04242435792954    4.11038823842135
C        13.33199434488653    2.89711871229418    5.01337991109790
H        13.47723325698590    3.58545445272564    5.83409085764398
C        14.10161459185213    1.74962500887404    4.92760055149313
H        14.85107233652564    1.54121740089677    5.67723705349792
C        13.90640982117142    0.86318432038222    3.87964899834417
H        14.50494895944137   -0.03434984849640    3.81354491811588
C        12.94874144114719    1.12316884174517    2.91733852508084
H        12.80713545192208    0.43095510167886    2.09752292026946

