88
CSD_code = OVOLAN | q = 0 | S = 0 | Stoichiometry = C38H43ClN2OP2Ru | MND = 6
Ru        5.09108804425310    3.40284319730888    6.03086544002009
Cl        6.39747145431734    2.57187975231544    7.88169117521219
P         4.09143199547256    4.42808834440704    4.29657333286136
P         3.51941204222207    4.46599043307755    7.31417555284141
O         3.61445291393251    0.83640100489607    6.55917434955178
N         7.66489308122117    3.67462021417447    4.72296561002453
N         6.97722520906993    1.73101352121883    4.09666565886327
C         4.16258832581319    1.79863741402617    6.23609249114671
C         6.66044791276309    2.79856152257582    4.86402534123639
C         8.61953815107750    3.18106806444863    3.86838398743650
C         8.19706117516481    1.94410335204960    3.48351329418342
C         7.70587630260538    4.91687028331814    5.47679697907912
C         6.32295689729337    5.16743486992654    6.09993176485686
C         8.78936226577320    4.80898842066419    6.55219434820820
H         8.51490483374433    4.02568153100989    7.25665612091326
H         8.86539844902140    5.75102639409777    7.08987726547363
H         9.76125156494072    4.57452443748243    6.12320908233728
C         9.83503537080117    3.93002516403327    3.44693153286533
H        10.68760832348340    3.69591846937686    4.08565131578405
H         9.65463110622477    5.00124009569883    3.49496223308438
H        10.09614024268840    3.67093519063406    2.42312673587993
C         8.90414317831851    0.98794694349913    2.58812129428938
H         8.42667263786187    0.92556575148108    1.61029562016142
H         8.93724097761435   -0.00828281777037    3.02302676620969
H         9.92709467848739    1.32738486808627    2.44738500211702
C         6.14620848515208    0.53993552348069    4.06176877847886
H         5.16558737957547    0.88499486461373    4.41429862353948
C         5.95149774405884   -0.03559005349754    2.66138776734283
H         5.77420338765358    0.76024859053171    1.94094714735235
H         5.07824772391810   -0.68321491360988    2.66885121336239
H         6.80310689782112   -0.62638538170107    2.33944906271551
C         6.67365660434916   -0.49203336603551    5.05719653868285
H         7.65788861863536   -0.85417800673857    4.76911941281423
H         5.99220667733882   -1.33645425009810    5.11238218949145
H         6.74410396010748   -0.03689731357450    6.04382607211671
C         3.02080015003731    5.78272940899243    4.96562887166630
H         3.67049712581405    6.59103755244531    5.31551921208947
H         2.34316699698266    6.16145147170242    4.19219883621463
C         2.26788197740422    5.18741213161373    6.15037949719524
H         1.64065119533335    4.35109731007426    5.81325468836175
H         1.62963271814337    5.92932319725660    6.63741321257617
C         5.17005834696379    5.21917192395554    3.06195291993943
C         5.83023511718236    4.33269144655500    2.21254708175562
H         5.57960518292621    3.27997035975604    2.26932080158229
C         6.78202409623689    4.78591170652395    1.32217661477753
H         7.29448382396407    4.08996257292202    0.67373260981086
C         7.08438684016616    6.13815900380397    1.26843002761274
H         7.83583178772284    6.49778045958127    0.58082618575064
C         6.41998395395212    7.02756420257022    2.09506657544015
H         6.64959142843020    8.08254907336987    2.04721162478514
C         5.46709894520880    6.57396789327614    2.99229926859263
H         4.96094540227259    7.28170989289594    3.63270725161781
C         2.88141969352370    3.64651208634843    3.16524713147777
C         2.49111410176385    4.28954706705583    1.99326405140216
H         2.93281606608830    5.24220328606531    1.73190066329334
C         1.55052886071114    3.70848665147145    1.16441149219923
H         1.25331577340064    4.20909451802283    0.25418650180854
C         0.98859009898251    2.48578040091671    1.49796257721906
H         0.25469685180648    2.03446950172847    0.84665602310354
C         1.36828602999077    1.84497804337093    2.66490082257636
H         0.92993143526546    0.89389183998758    2.92913672027320
C         2.31274505885576    2.42424879271422    3.49431412769051
H         2.61923601825443    1.93461017708249    4.40915766436462
C         2.49596854798594    3.55891481056893    8.51845667240116
C         1.16541605925136    3.86886363214852    8.78053062178121
H         0.67236804681630    4.66894155954319    8.24804901442456
C         0.46284960098270    3.14735336238057    9.72847140410586
H        -0.57265942835815    3.38740671630031    9.92443335485023
C         1.08046514685216    2.12249597021729   10.42648366451635
H         0.52484191546342    1.56251229633928   11.16468496494937
C         2.40811131032713    1.81829319074364   10.17677562773015
H         2.89374358308886    1.02058972383774   10.71911548661736
C         3.11503698847952    2.53217700461193    9.22669138692902
H         4.15109974906948    2.28981800740143    9.02294705805366
C         4.01894110623685    5.85612495586664    8.38242480949196
C         4.95650461393617    5.52095438295078    9.35917118669036
H         5.33212204652279    4.50571002677705    9.40277420417409
C         5.42309858080130    6.48006985211114   10.23606475420948
H         6.15122380013630    6.21383899605496   10.98813752214131
C         4.96260341628734    7.78451188938110   10.14369574570179
H         5.32609808644618    8.53807729224503   10.82730928603772
C         4.04242152479484    8.12402254371332    9.16739011949777
H         3.68952236143220    9.14286120576570    9.08824694943741
C         3.56989970322124    7.16653545108367    8.28529137582549
H         2.85719106266006    7.45827358130430    7.52719024678403
H         6.48700456281151    5.41990047108776    7.15702901051431
H         5.92582938073264    6.09580397526516    5.65694016583724
H         7.96820854384482    5.71604501485565    4.76577321156459

