88
CSD_code = OVOLER | q = 0 | S = 0 | Stoichiometry = C38H43ClN2OP2Ru | MND = 6
Ru        1.19006298155226    2.26270140493920    7.28236237040083
Cl        3.22527708108198    2.91778388124447    8.38998889772257
P         1.05968607431066    4.09952519110246    5.89809632612891
P         0.26313850859042    3.73671308920189    8.89347753327060
O        -1.37584386648052    1.27880509843796    6.12920636729240
N         1.55723738462664   -0.06188255712456    9.48026865381038
N         2.15819616324269   -0.47213289878111    7.45675115053148
C        -0.37315872800364    1.65805866525439    6.56739456751545
C         1.57674040352513    0.45934589568395    8.23371003100202
C         2.13293689936937   -1.31966736872707    9.47837558949763
C         2.50838803561032   -1.57597838090356    8.19356087528570
C         2.33563277749682   -0.26337499019755    6.03309143701396
H         3.30100134864479   -0.70725553450217    5.74827847573599
C         1.22557048867980   -0.97513009987298    5.25723835520048
H         1.20471553599413   -2.03868138774142    5.48625694277394
H         1.39082185484769   -0.85361350398340    4.19018710222705
H         0.26013741903926   -0.54490792207122    5.50964047181358
C         2.33590338629539    1.24783692805865    5.80117045110974
C         1.08201846937248    0.68928098323948   10.62656244156871
C         2.25205607700371    1.18358349487552   11.47360047127845
H         2.80155661666736    0.36157489490321   11.92435064498799
H         1.88321446320905    1.82942861183375   12.26562346750888
H         2.93278797194300    1.75739277146470   10.84820606989522
C         0.03488529599803   -0.06232184896025   11.44362923039748
H        -0.67780127501514   -0.55542360854598   10.78594884658661
H        -0.50482643973478    0.65110875659931   12.06149175704991
H         0.48397912523342   -0.80218166503876   12.09884716930402
C         2.25644455292005   -2.21762982478505   10.65889862336146
H         1.29352863214758   -2.65977670080683   10.91533841302365
H         2.63957224658548   -1.69121643803052   11.52889020066236
H         2.94445165629249   -3.02582767721720   10.42406270367818
C         3.19223420317497   -2.75946093928061    7.60766933418219
H         3.52561218404813   -3.43041606814330    8.39426243438426
H         4.06071361812310   -2.44890112471026    7.02797703226443
H         2.52466893656959   -3.31223120566391    6.94691300877800
C         2.45666083943359    5.07734551774676    5.24336452399861
C         3.75868174629101    4.83506670138039    5.65902500796190
H         3.95467004797951    4.05509831219084    6.38080862203353
C         4.79904805100158    5.60574955863025    5.16547978166650
H         5.80963862990980    5.41384706079449    5.49526466452565
C         4.54559878939757    6.61614494974254    4.25550809961987
H         5.35728073594339    7.21544195213248    3.86884934101036
C         3.24573005334838    6.86164195775393    3.83695892127426
H         3.04630248468729    7.65002576305952    3.12497611068653
C         2.20494443896698    6.09875886691351    4.32726760875706
H         1.19187381153421    6.28221171476290    3.99215483011840
C         0.11606227756831    3.81457929779356    4.36850082336507
C         0.80333606895704    3.49479896616893    3.19973276443727
H         1.88516833681962    3.51389605506168    3.19763617706550
C         0.11279039698592    3.16103576969601    2.05005754057533
H         0.65592795733078    2.91731306598014    1.14822146069984
C        -1.27210457201401    3.13453257660726    2.05512580486768
H        -1.81228154813413    2.87364846538082    1.15684883129779
C        -1.96219597014703    3.43261240951185    3.21807398670336
H        -3.04196715290328    3.39931720370181    3.23009306970856
C        -1.27407294057847    3.76218201565682    4.37133169931906
H        -1.82597088220071    3.96460289644253    5.27919935474375
C         0.12995829553367    5.45850227515977    6.75684113983608
H         0.33185636174820    6.42440939570364    6.28376269468451
H        -0.94392181411464    5.25147130656747    6.70962374351705
C         0.60366858702864    5.42558332761485    8.20263118595655
H         0.15007369023028    6.20702055853318    8.82048894218665
H         1.69339368724968    5.55212086406781    8.23450582793249
C        -1.56371485396242    3.71034703053304    9.00258796209310
C        -2.36561531345288    4.84165172411766    9.10882086030886
H        -1.92447933178764    5.82710601999343    9.14093609217259
C        -3.74173649383003    4.71573105899236    9.18017761983076
H        -4.35668922374103    5.60155600829643    9.25255358560856
C        -4.33224970304073    3.46311486718051    9.16172329509920
H        -5.40712830905366    3.37148567841103    9.21576772572109
C        -3.54041024563992    2.32990583855729    9.07480577685279
H        -3.99491970727691    1.35011591339656    9.06388974804669
C        -2.16629860283498    2.45503398903774    8.99224057382589
H        -1.53931119719768    1.57455055090095    8.91075758428135
C         0.67902073673232    4.09240083186827   10.63965779297429
C         1.93539200415364    4.60548970249058   10.95100334524842
H         2.66113258310143    4.76223612513808   10.16728053522959
C         2.27122584431596    4.87294616079571   12.26552245402381
H         3.24840568826688    5.27061215204074   12.49722120087274
C         1.36338295380473    4.62814743790903   13.28246044443664
H         1.62640595956724    4.84009279785265   14.30863226346724
C         0.11846500925407    4.10108684294206   12.98024737352337
H        -0.59115926798458    3.90003622880725   13.77046390020385
C        -0.22232237071136    3.82878569730149   11.66780643759442
H        -1.19517012172574    3.41395341238328   11.44147787890653
H         2.03296219545746    1.44165106648448    4.76504066293910
H         3.37032147847344    1.60705782719434    5.90065608822358
H         0.59299979821371    1.57151831095627   10.18860879276243

