75
CSD_code = OVOMAO | q = 0 | S = 0 | Stoichiometry = C32H30F8FeN2P2 | MND = 6
Fe        5.10433490456385    7.32271898121683    4.36059892497234
P         6.34450264885019    8.66189729242570    5.64010424361152
P         5.86385106536960    7.18652125859923    2.26971905147535
F         4.82747325743803    5.33239539976471    7.14244409109909
F         1.97107432861591    7.26315356360557    2.96151187945608
N         6.14049560291414    5.74007970725457    4.78797998898327
N         3.95184029626690    8.83601911961796    3.98008607826126
F         0.77747741525354    8.94156730925521    6.63066862030281
F         2.81989257793524    5.31941925016605    8.87371606734767
F         0.41688280085963    5.13477459384561    2.67440861890829
F         3.82845086372853    2.33596402483333    4.36273192085048
C         3.75406710792385    5.99376271483178    3.91094037635871
F         1.27197702632045    2.63758453164081    3.37684669965677
C         3.87663738647732    7.10212510685902    5.85561920200839
C         7.86632077359339    4.84668537299885    6.25993220055763
H         7.11531796635598    4.31118754907893    6.81922799878528
F         0.74479167787974    7.08334924452655    8.66650575954833
C         3.82472782583049    6.21790043893251    6.93000994462078
C         7.47630020029329    5.66589070844247    5.19838363001682
C         2.92232136620336    8.96757348351210    4.75501463909421
H         2.20925399256617    9.77649199265601    4.63933562691420
C         2.79427157960899    6.19928733701972    7.85957878589591
C         6.72150661899839    7.99973333823236    7.31157403731926
H         7.28489421419676    8.73882691849888    7.88104785725659
H         7.29694393680232    7.08175493689376    7.24449306585834
H         5.78552932918991    7.78747792178594    7.82260965598397
C         2.47016990493934    6.07486669217498    3.37822337968881
C         5.51254382162536    4.61181463603891    4.68513346089722
H         5.99018384843034    3.66130381083640    4.89614624481589
C         2.07737024510262    3.69740542354330    3.55086317665859
C         4.09031632249179    9.79630212623874    2.97162825570993
C         2.80503173864998    8.02570241347410    5.81023214020078
C         5.47322236108172   10.18132453506260    6.22114534232631
H         6.07553575752366   10.67533549646961    6.98336607429703
H         4.51785583802195    9.89475289432563    6.65632040831203
H         5.29104480655901   10.87413294718242    5.40290812654981
C         8.44735399163920    6.38807008850142    4.51352245988320
H         8.13323022473966    7.01700958299172    3.69605886715049
C         1.73757668556670    7.10454936002736    7.76314460916801
C         3.35710364662417    3.55763328766085    4.05061739895064
C         3.00213042665980   10.19396723035265    2.19201734750455
H         2.04980777766030    9.70461511211809    2.32320462794893
C         1.75947090492959    8.02681192420596    6.73555937624029
C         1.64119191737358    4.97562166335466    3.20262930753215
C         4.17300310792654    4.67777374634178    4.22091676384569
C         9.19833337775467    4.75988658722637    6.61856554808212
H         9.48622770123089    4.13225205500102    7.44846484760343
C         8.00222739309914    9.41931040741088    5.29773780832341
H         8.15272926047967   10.27535590765615    5.95401855629853
H         8.08627740199739    9.74872333962603    4.26470524003717
H         8.77680226379645    8.68171009007166    5.49120855925618
C         4.57030078372436    7.29677909155100    0.97006411077621
H         5.02530749707714    7.17417134702388   -0.01267940642808
H         4.05806744645751    8.25281359868566    1.01290329762887
H         3.84334840823944    6.50467667573352    1.13246680197291
C         5.32473572187420   10.40143413675528    2.76283874854140
H         6.15703332834092   10.08527770585688    3.37095510231284
C         6.48276441391975    5.51530093920299    1.79097394448138
H         6.65261948142124    5.48640406069740    0.71481646006224
H         5.73000552893115    4.77334566141714    2.05006030620803
H         7.40796477482830    5.26975251872677    2.30712628813682
C        10.16194999630343    5.46654919595926    5.91712275374366
H        11.20239362892552    5.38613887828800    6.19258871040212
C         7.15696577064478    8.20466484773834    1.41536547473561
H         7.53049651309974    7.66333237255307    0.54724757366865
H         7.99109944190798    8.42853143262166    2.07634413828489
H         6.71272331517940    9.14091853316171    1.08739037782272
C         4.38571423770970   11.78666609460190    1.04280886392486
H         4.49926534046926   12.56030166930935    0.29884500081030
C         9.78097970621303    6.27912053210874    4.86232444509184
H        10.52691704504160    6.83044888049877    4.30800036244183
C         3.15708986270389   11.17389873588340    1.22962124113336
H         2.31129315346900   11.46427977545437    0.62475058337388
C         5.46781219873689   11.39779040353209    1.81476058515953
H         6.42827491485402   11.87362945826262    1.67777734329253

