73
CSD_code = OVORIC | q = 0 | S = 0 | Stoichiometry = C16H39B11O4P2Ru | MND = 6
Ru        6.52698774430586    4.92446941839527    8.94835823624116
P         5.91168165980888    5.70819318482914    6.78645346853719
P         6.46777920824572    3.22168725955189   10.59622388136987
O         4.87109590449926    4.66651318861308    6.08765869693496
O         5.48293343417642    2.00857436412542   10.12641110212979
O         9.01603192643531    6.53873595468405    9.57690449016743
O         4.77760641805507    6.83815549443823   10.45264496411859
C         4.24009627833405    3.70378397404973    6.90709246085621
C         4.56597663417692    2.26945813107835    9.07996771680269
C         8.12731873319686    5.85810714942720    9.29859141412705
C         5.47528101456859    6.12127385806598    9.87703378518491
C         7.10092813223820    5.99170144202906    5.36270955493563
H         7.00962234657688    7.05042695544396    5.09592585464901
C         6.76179759285818    5.14779237846633    4.13960743306110
H         6.85618859098716    4.08949957417312    4.36736899942720
H         7.44702435027687    5.38943717558394    3.32817340873967
H         5.74563407751287    5.33619631226719    3.80364674297093
C         8.53586065651996    5.75130007484763    5.82011264824707
H         8.77231942816774    6.37233786699854    6.68368847565851
H         9.23276399931155    5.99739252130426    5.02014380328283
H         8.68101850857725    4.70922677703013    6.09541274612204
C         4.92599323271700    7.30079955159484    6.77875241493120
H         4.14938134733246    7.15465347727456    7.53969756356265
C         4.24360368151738    7.57340124952282    5.44377257764380
H         4.96791483757869    7.80288003343815    4.66550225652395
H         3.57008132743145    8.42379681874525    5.53741874615326
H         3.66162402848506    6.70840270897736    5.13320333858548
C         5.81248783012809    8.45548645241876    7.23017667909069
H         6.33235254988900    8.19380953089764    8.15364145164212
H         5.21277914731236    9.34465162990440    7.41502022619675
H         6.55847064406842    8.70278189746794    6.47714564161611
C         7.98543110146593    2.17671716125897   10.89170212201579
H         8.09938831879770    1.67890281041270    9.92052341090545
C         7.81586484195155    1.09976469323100   11.95620198379220
H         7.86283580841381    1.52468647328393   12.95588825447014
H         8.62014647624052    0.37039011462644   11.86791915929468
H         6.86930548941202    0.58125894567248   11.82798409585544
C         9.22569611728981    3.02679360582733   11.13221741338630
H         9.31132734040631    3.79556039308244   10.36443147584443
H        10.11737786258204    2.40330465755079   11.09066694903854
H         9.19799208250152    3.51184155597493   12.10487062232060
C         5.70670391320862    3.73627440719530   12.23460550858116
H         4.89034267536639    4.39654624516050   11.91094862344499
C         5.08791685851561    2.61763483679428   13.06485243197173
H         4.53629360633630    1.92863205941977   12.42942178303204
H         4.39313310102468    3.04328643843706   13.78749741463210
H         5.84014086589305    2.06014221067426   13.61384926932543
C         6.69153590742309    4.58392475715799   13.02994637579202
H         7.45411170651245    3.96498653621196   13.49701313406797
H         6.17249700169296    5.12825472301914   13.81694100270033
H         7.17860448228873    5.30919037434381   12.37549545430238
B         4.69059938348677    3.83629303246547    8.51110889214853
B         5.24429878280136    2.44172337878996    7.50776415165309
B         3.26234335155420    3.32817957239665    9.44208934680991
H         3.14330199125658    3.68952849431654   10.55412604567547
B         3.04571690798526    4.27968725744410    7.99969310004239
H         2.74899745768584    5.41541709402827    7.93828799408925
B         4.18910203422125    1.10581053656571    7.87181784263423
H         4.64970284347426    0.03048924869267    7.94649427726442
B         2.98344520736417    1.63021307526601    9.05229110034517
H         2.65680097725935    0.88831693007741    9.90088789506149
B         1.97689765742798    2.90368052781853    8.30350455327141
H         0.84275141746610    3.05037556976670    8.57089952661392
B         2.62531779602192    3.20495205226630    6.66521768632342
H         2.03327169141119    3.62942147154851    5.74538095593488
B         3.96512089967503    2.08889611482699    6.38150638337207
H         4.24957249961050    1.78580372885450    5.28539462106538
B         2.56044778989367    1.53817132662944    7.31543149569357
H         1.81867752355070    0.73091017441692    6.89415536787749
B         6.88091751308091    2.41708481300883    7.23382754315899
H         7.33882859179145    3.79620914929386    8.12195926838618
H         7.30790669250511    2.73652353485936    6.17815052068388
H         7.57410016772216    1.62649351133652    7.77497416769775

