91
CSD_code = OVOTOK | q = 0 | S = 0 | Stoichiometry = C41H42CoN6P | MND = 5
Co        7.02730181078831    3.68670180969640    3.54247892507388
P         5.13536287234293    4.92505854250485    4.04463377893136
N         7.14423368588231    1.91056479471165    6.05680272202972
N         7.87929334457119    3.95809400065367    6.21705271997434
N         8.06154651701357    5.89620077878433    2.12563873260388
N         7.37542373353356    4.50512950515267    0.59187265102901
N         6.38100519151251    2.31805929305093    2.86662070087076
N         5.90946422153490    1.40447065501723    2.41457683191765
C         7.39956201789051    3.02465286548723    5.32973982624005
C         7.44371766965125    2.12033563285228    7.38167385974680
C         7.35943514624812    1.28171457894576    8.48057473404475
H         7.01379743990410    0.26418555220958    8.37610347448182
C         7.73835674400338    1.80240903083936    9.70445914065152
H         7.68496962272485    1.18114809814979   10.58575242278951
C         8.18711027243068    3.11479232494605    9.82225780108500
H         8.46976102292064    3.48788248265521   10.79525089711989
C         8.28508149566730    3.95356690976881    8.72603633156098
H         8.63745755582865    4.96516513781874    8.84243085509284
C         7.91452473007824    3.44531122602437    7.48977441807306
C         8.25674312979650    5.17266472438792    5.63221049000068
C         8.86753839448045    6.27930093747291    6.19857811887600
H         9.09848226260520    6.33272627010797    7.25144872113837
C         9.19988272525210    7.34466880722813    5.37132359696027
H         9.67300336656307    8.21425442113208    5.80423701021132
C         8.96719502309973    7.31864884697904    4.00204825871737
H         9.27339973670207    8.15720921030647    3.39563665352786
C         8.35466326938338    6.20071577868908    3.46018315412363
C         7.97283703699403    5.13080080929474    4.26805016852012
C         8.20387911526510    6.55490582148022    0.92979009057772
C         8.65078928556100    7.81770856988400    0.56968923681973
H         8.98335546902512    8.53370912983702    1.30300714857823
C         8.65729075012892    8.13853170923436   -0.77633476071214
H         9.00093730908529    9.11567386889644   -1.08113146459298
C         8.23784276571378    7.23467531153358   -1.74831294727307
H         8.26692653950915    7.52517912520055   -2.78767181043892
C         7.78481753393355    5.97359631512088   -1.40633484770938
H         7.46203206813897    5.26221209811933   -2.15163545493291
C         7.76409071445964    5.65123676973549   -0.05958582652819
C         7.54608110484377    4.63755482945878    1.92925113813987
C         6.68205095134201    0.67852004215354    5.52890428462219
C         7.57262484850158   -0.14347840339527    4.83949514772358
C         7.10235487130653   -1.34398585512805    4.33219522838750
H         7.78079963262083   -1.98622002382537    3.78918683142882
C         5.78192513586693   -1.73459846352976    4.49953152993049
C         4.91924741074052   -0.89783959671379    5.19260669512383
H         3.88640778681504   -1.18896226265304    5.32256253665027
C         5.35007381884964    0.31267708162633    5.71076128843349
C         8.99590840627092    0.27990141336264    4.65032658451011
H         9.03160493705855    1.20258781479868    4.06856235230484
H         9.55961701234041   -0.48725781857653    4.12695184867889
H         9.47216601882201    0.47369417372650    5.61166278904899
C         5.28552536955712   -3.02116091486285    3.91377070861551
H         6.09169387223075   -3.74597591094236    3.82576232689124
H         4.88479608272767   -2.83730072916367    2.91636881080347
H         4.49087225755290   -3.44623946006670    4.52338186181784
C         4.41004277769630    1.22980691162406    6.43276184623872
H         4.67533909491452    1.31016460173498    7.48757221449287
H         3.38737829018951    0.86884348765361    6.35904202551742
H         4.46360267438752    2.22751969761776    5.99742627886674
C         6.90549459299287    3.33684774423760   -0.05937563318980
C         5.60522607485780    3.30756806735165   -0.55805748927322
C         5.16581259126580    2.15796990132008   -1.19565431911890
H         4.15631444491150    2.12307277521733   -1.58054459829916
C         5.98894401999496    1.05088072252833   -1.33531543682525
C         7.27927723867885    1.10786502506775   -0.82762292852496
H         7.92580017010418    0.24785355230122   -0.92741551975885
C         7.75715945396925    2.23974316624060   -0.18844270990305
C         4.70411972354125    4.49257530680702   -0.38391173094329
H         4.71224011959653    4.81292722838274    0.65763417170669
H         3.68425576883830    4.24531953206543   -0.66748952008470
H         5.04021617860266    5.33158546941031   -0.99438865037194
C         5.48845517980636   -0.19858152113628   -1.99344297728505
H         5.15006850144488   -0.90191205616730   -1.23229090756429
H         6.27900524498455   -0.67866386573024   -2.56632965334426
H         4.65184099472885    0.01554366741913   -2.65433186941024
C         9.14669761581718    2.29534778484236    0.36532239953149
H         9.69584644736069    3.13910513542123   -0.05297825738011
H         9.68650605616372    1.37911237543836    0.14325282284065
H         9.10669424980568    2.42747186719217    1.44800016821734
C         4.98102009776781    6.60370226409816    3.30438257985117
H         5.81914352445132    7.21148541413379    3.64206899510003
H         4.04543819464590    7.07197109839837    3.60869638924534
H         5.01560073709644    6.53904035467603    2.21829230921682
C         4.85230249292818    5.40202155408199    5.80024526228584
H         4.78803661805009    4.51240748387969    6.42428622134699
H         3.93260193371285    5.97829602693843    5.89671700284006
H         5.69524091409274    6.00274400749215    6.13855032396993
C         3.46835002358029    4.25488221992124    3.63612929047039
H         3.41571848617699    4.06273679077286    2.56596901095877
H         2.67966504620900    4.94889557162563    3.92572605492274
H         3.33138331898247    3.30587297691068    4.15150851135214

