54
CSD_code = OVOXAA | q = 0 | S = 0 | Stoichiometry = C28H19ClFeNO3P | MND = 6
Fe        5.16859274286198   10.83861238200189   10.16721033947571
Cl       -1.66830428921009    8.63991673842183    8.59836676244131
P         5.90111657456004   10.07443785984636   12.07838797744253
O         7.88706029246493   11.48424635962487    9.32408384782840
O         4.08638100821772   13.20840109865920   11.48892812795298
O         4.23263224758437   11.78340543457011    7.58703918208654
N         3.90644514928118    9.26507640271265   10.39620017263695
C         4.57518691833407   11.37728842240641    8.60196986320462
C         4.46293254856420   12.25290185153849   10.97919917916029
C         6.82946951729885   11.20115436025225    9.66381319557061
C         4.98361873647175    8.79474137016809    9.71520776407121
H         4.82994579809211    8.47959471991146    8.67378344350932
C         5.90208195121752    7.91891781047867   10.47614645918437
C         6.26641819582758    6.65432688382642   10.03132476765725
H         5.94139754342508    6.31251536923436    9.05881517111672
C         7.03688473703053    5.83230894852036   10.83620241945791
H         7.32046966054849    4.85203669695914   10.48254910137435
C         7.43774309255847    6.25148331740446   12.09548674332968
H         8.03103131128211    5.59908496566655   12.71859988405164
C         7.09501821160283    7.51443354009332   12.54907257385806
H         7.42711244195694    7.85446843344394   13.51968540666511
C         6.35140509943877    8.35035413638227   11.72981882934379
C         7.42023062594276   10.83320280923057   12.72703695916553
C         8.67999244616030   10.38277459735721   12.34689820718607
H         8.77088395017944    9.50602134006100   11.71962697096287
C         9.81051083564925   11.05749506756669   12.77191792523121
H        10.78803323553289   10.70288823719182   12.48009290360500
C         9.69042580506158   12.18898224154520   13.56183176052426
H        10.57519846251265   12.71405151652797   13.88956955893769
C         8.43574311545991   12.65441575118952   13.92388471634875
H         8.34231495444947   13.54343235964690   14.52992267841496
C         7.30297885209681   11.98438396186416   13.50304886238306
H         6.31802247780111   12.34364220098047   13.77391562714022
C         4.87052358580719    9.93868756623480   13.57315563510535
C         5.46116873760433    9.68821277514568   14.80995948122451
H         6.53729991742846    9.62192043316470   14.89363408789759
C         4.67042818520370    9.54521354726754   15.93467834260677
H         5.13105593159935    9.35378578268246   16.89288652890453
C         3.29200373553847    9.65004872642149   15.83550273758697
H         2.67866939253306    9.53999999374529   16.71747309829623
C         2.70300749681487    9.89801114624023   14.60665942391179
H         1.62921329655552    9.98063997220083   14.52705633134022
C         3.48791024494004   10.04099354886047   13.47650667027211
H         3.03494279645537   10.22668147784799   12.51440034862915
C         2.62368803058630    9.15853209035490    9.91343726219633
C         2.19006785066813    7.96176184178263    9.32727881867501
H         2.89153288881045    7.14899334165292    9.20937705522951
C         0.88044169486521    7.80334001029607    8.92389257147862
H         0.55976646761404    6.87886930113758    8.46899177702705
C        -0.02371445517367    8.83652907468609    9.10649818476059
C         0.37743169703931   10.02820850365420    9.69075930704010
H        -0.33206322076776   10.83022565578185    9.82313325791496
C         1.68816802792763   10.18501016981828   10.08683411386870
H         2.01338344769377   11.12223785573728   10.51804758471663

