57
CSD_code = OVOYAA | q = 0 | S = 0 | Stoichiometry = C26H24N2O4Pd | MND = 4
Pd        1.19756106698798   14.62927270823527    3.29381566383175
O         3.16952361257756   15.10470700915928    3.18979445707489
O         3.30555962114583   19.72558741055265    2.07485531775782
O        -0.75926227268823   14.29138642446648    2.87030397395376
O        -0.78528639698212   10.76632503614818   -0.32136621720804
N         0.91244375553784   16.54323750573705    3.80112990883015
N         1.48082909487137   12.70241148480682    2.83442286295621
C         1.59315722929793   17.59895400591735    3.41575043445467
C         0.86503677369924   18.88598269177672    3.80159905242433
C        -0.29079164706135   18.32542488602150    4.58821988426543
C        -1.31656588993890   18.92792842110066    5.28187067189946
H        -1.41271114768009   20.00267200135431    5.31775975210868
C        -2.22391785258072   18.11634967031501    5.95238557858062
H        -3.03309838239418   18.57038774113656    6.50444185002189
C        -2.09608696607839   16.73408801282485    5.94447288177575
H        -2.80199632051573   16.13337966620297    6.49817237195263
C        -1.07181247926039   16.11532202567195    5.24519253294470
H        -0.94022113057744   15.03733377694626    5.24722014494024
C        -0.19762705689592   16.93262913681146    4.54704957800338
C         2.88846730706636   17.47930736127759    2.81680460078528
C         3.55390067054267   16.23958287873044    2.82061441844811
H         4.59881932704140   16.27657538734899    2.47515218046270
C         3.63722942295337   18.57051854011054    2.23382661067473
H         4.63869489536688   18.24466753846155    1.88371282872473
C         1.71462610125517   19.82293708411221    4.66228240026569
H         1.09290201725664   20.63387580991096    5.03312021742726
H         2.52233560678041   20.24563151321626    4.07466380382710
H         2.12983128773638   19.28547076316104    5.51259715662665
C         0.33833223508829   19.60283980572450    2.55022234145752
H        -0.25500899783695   18.91952517886901    1.94563364472766
H         1.16766522706764   19.98005681946569    1.96117041639652
H        -0.28947111137450   20.43669499816813    2.85396393645874
C         0.83307695398125   11.96997965082135    1.95659847261813
C         1.55552010123254   10.64520645964219    1.71472351801049
C         2.66395854796399   10.74450991539752    2.72972153249842
C         3.66080022505758    9.86919404223210    3.09916469976595
H         3.76760303239489    8.90772163961363    2.61982210377203
C         4.52400097053673   10.24737678262101    4.12059961004413
H         5.30989348452602    9.57321511150616    4.42649388591880
C         4.38020205389808   11.46563161162557    4.77037952962826
H         5.05031872601874   11.71752585399666    5.57861277051204
C         3.38486243901863   12.35783827387282    4.40389279840253
H         3.24087045776648   13.30439252305454    4.91627051430958
C         2.55644347108611   11.98767549156007    3.35683120439970
C        -0.43105193094008   12.37993125498947    1.42284031466435
C        -1.11022015086482   13.47686610647106    1.98415908578769
H        -2.13489748582318   13.62530834693972    1.60921476964536
C        -1.13670661165584   11.71068370309844    0.35251473928562
H        -2.12207877585043   12.17951560964161    0.15020247425922
C         0.67454635707695    9.42276585633496    1.97954162377789
H         1.28594099402591    8.52454024545251    1.94681567977537
H        -0.09851886657575    9.34416656521929    1.22288171694304
H         0.21213371706125    9.49366367956297    2.96210722731828
C         2.15207323968254   10.60684222376558    0.30062958851164
H         2.77023596084002   11.48581704583357    0.12818085482877
H         1.35759342896256   10.57272983117454   -0.43739643373122
H         2.77014206015972    9.71853888182360    0.19774246220053

