89
CSD_code = OVUBAK | q = 0 | S = 0 | Stoichiometry = C44H35BN5O2PRu | MND = 6
Ru       13.41848445327284    4.28365915510340    7.78456337769418
H        12.81494758511465    3.45287483188595    6.61632500279591
P        13.97740916031141    2.44482800361461    9.00878019601526
O        11.48077921214110    4.68281634039952    5.02314031884644
O        12.94109325247359    5.92261394984718    6.37546817580392
N        11.47911618987822    4.51424055976534    8.61326528749922
N        12.17076132867473    6.18511557602354   10.20428580885584
N        14.19313809752520    5.48797265847099    9.18564403222703
N        16.51650939157033    5.19991606869002    8.74394161444124
N        15.26547609538854    4.41494789957650    6.84161265817247
C        10.54334252679620    2.53683704889583    7.46105839647416
H        10.60079000175008    2.65136244875911    6.37896609851967
H         9.67136668176068    1.92825384638762    7.69323443130807
H        11.44032378120621    2.02456432542343    7.80466446967890
C        10.39972339661184    3.87713706263876    8.12003752888361
C         9.12145661273879    4.39785398717797    8.22051569314889
H         8.29827276530013    3.85625254737152    7.78247764019711
C         8.90761673952490    5.60589499820402    8.87415988121409
H         7.92160038597095    6.04160406838092    8.92403506305918
C         9.97686511579749    6.18944870717120    9.49581572172105
H         9.88794001351198    7.08572282856830   10.08681758036973
C        11.26089576622205    5.61583256817297    9.38731066617005
C        13.46127846870609    6.05847621796122   10.16177421813831
C        14.36795391678732    6.61088024532668   11.17377540316932
C        14.15513687145111    7.27034800013872   12.36701574948085
H        13.15425364081410    7.48122109875349   12.71014602177080
C        15.27208734657780    7.64533366462838   13.10278679210068
H        15.14016888927370    8.16010601443879   14.04365445366903
C        16.55678695828925    7.37051352328778   12.65285556297008
H        17.40234961656273    7.67643922134146   13.25203579729526
C        16.77367533798870    6.71204500453728   11.44931981705374
H        17.76684019681703    6.49318748724015   11.09086726701049
C        15.66633796634373    6.33453573296686   10.71852048545536
C        15.51042241926796    5.61906856686022    9.44880159653419
C        16.42516671939656    4.65594263679580    7.51032059095076
C        17.67129880056580    4.41247427452173    6.89986416890011
H        18.55069537762057    4.57226239061705    7.50082323539912
C        17.72998084807561    4.02530742820520    5.58622558586312
H        18.67384402990029    3.81918074242286    5.10423573143860
C        16.53874062480177    3.96761670817618    4.87101681498204
H        16.53721476815372    3.76105857852761    3.81229023611203
C        15.33408765792075    4.18804728592555    5.51763253192711
C        14.06942008434084    4.24164285986793    4.69935404930876
H        13.90051850490788    3.27533719712269    4.21806438088254
H        14.23246395929718    4.95862124201401    3.88872212963393
C        10.85180716212620    5.76969609539589    5.51936043397520
C         9.55455809438612    6.18504157038176    5.30112345307582
H         8.88674088513019    5.60853640684579    4.68155978589145
C         9.15047914763422    7.36799472334765    5.90683940593833
H         8.14146201879863    7.71858562258065    5.74972930721303
C        10.00997715158126    8.10535046461136    6.70357068259661
H         9.66308941349991    9.01991005353581    7.15978287420884
C        11.31487891002292    7.68844948763986    6.93399825889058
H        11.98750092255116    8.24951450926514    7.56505861861501
C        11.71945484424592    6.51528510073384    6.33258663617302
C        14.47585337511455    0.90134378526473    8.16254492902877
C        14.99844029370108   -0.16510282071609    8.89360929972731
H        15.10122953115113   -0.07647473512526    9.96685811219666
C        15.38739727166558   -1.32357060212015    8.24913344857579
H        15.78908424650494   -2.14774166945796    8.82055437119673
C        15.26622079835108   -1.42855914411586    6.87139322245290
H        15.57473843130909   -2.33449905643623    6.37076006074677
C        14.75375473193584   -0.37085193476770    6.14037428967979
H        14.66257798055235   -0.44903129936317    5.06690278903773
C        14.35860793486157    0.78983519424238    6.78430499222515
H        13.95746418212647    1.62484447209686    6.22594400219002
C        15.43379712267559    2.61883963025795   10.11227060937622
C        15.34933377777744    3.09185675163517   11.41674417103185
H        14.38629952379054    3.26386575328916   11.87368236838973
C        16.49930076544981    3.33811755246685   12.14632192030392
H        16.41885057926868    3.71177274007699   13.15691992504199
C        17.74388722943013    3.11932487450045   11.58338242867385
H        18.63887461131644    3.32122775840175   12.15305900733940
C        17.83725332640570    2.64229807571353   10.28629118864900
H        18.80544272464481    2.46817846475492    9.84038196428990
C        16.69238424168748    2.39848678387691    9.55402691723685
H        16.76805293884585    2.03821010018558    8.53618031923598
C        12.67386827705762    1.85647630598317   10.15651664276473
C        12.10704228193496    2.79572998435171   11.01663015936142
H        12.47144180761647    3.81354463422623   11.01094556670386
C        11.06991655971202    2.44584799379264   11.86006767870937
H        10.64314921050583    3.18644445005954   12.52051672330146
C        10.57272070324087    1.15287060805351   11.84655233819448
H         9.75893235145268    0.87792431433319   12.50113614773988
C        11.11461924293788    0.21876902633176   10.98072671046920
H        10.72159812618262   -0.78732457799602   10.95623905863906
C        12.15508776380115    0.56586049674788   10.13617198835085
H        12.55511286014126   -0.17066551572953    9.45458482446027
B        12.79958508931087    4.67249196887209    5.59924010498765

