69
CSD_code = OVUBAJ | q = 0 | S = 0 | Stoichiometry = C28H32CdN2O6 | MND = 6
Cd       11.54568105131133   -0.00066089647624    0.00044706321390
O        11.67795422712506    0.93066101547487   -1.94556806514071
O         9.98221792330271    5.22107836054701   -0.86792145372631
O        12.39108471821211    2.12183866009271    1.10905285984278
H        11.68973095107219    2.76644981281339    1.27491309923748
N         9.69287483916183    0.97468396931336   -0.05329875579701
C         9.58574534353782    2.25489616888507   -0.33677723410380
C         8.34099529458039    2.86832387275552    0.30911984533744
C         7.70837471491937    1.63640086533684    0.89764171380779
C         6.53089821029814    1.44658903906220    1.58447761609781
H         5.85506591997048    2.26756175716791    1.77400636682508
C         6.22376054918058    0.16448771296248    2.02413632419932
H         5.30117848297941   -0.00707270242805    2.55853779646225
C         7.08131146899348   -0.89874089297421    1.78134681116771
H         6.81255613547317   -1.88551833914642    2.12870731881566
C         8.27417353769868   -0.71722420093138    1.09823036182335
H         8.94471788950862   -1.54014462351716    0.89378238501237
C         8.57716890004930    0.56450718925305    0.67028510741799
C        10.50062163616942    2.90273669616520   -1.22485066436827
C        11.42929490872165    2.14752666156767   -1.98043210426762
H        11.99145970767659    2.74295274041389   -2.72564153758230
C        10.55698001129010    4.32456659172100   -1.45470658108601
H        11.26536155513384    4.58914110425921   -2.26713438018579
C         8.73251726768117    3.81337813502393    1.45639936566677
H         7.83203632137915    4.15838087446449    1.95884141828717
H         9.26700577456432    4.67325538044639    1.06518498391123
H         9.35165813356258    3.28793844507023    2.18373131760817
C         7.41870565536011    3.56567734319330   -0.69070826960514
H         7.20691878220933    2.90894080663256   -1.53213482563950
H         7.87856759328552    4.47782883080020   -1.05556216239217
H         6.48063766918812    3.82008849110824   -0.20292933680344
C        13.12150948263607    1.94618520349221    2.31336415818384
H        13.92799044540113    1.24902041859051    2.09193682365429
H        12.49147742035125    1.52407607489543    3.10108101994621
H        13.54523044819697    2.89822406429202    2.64761196926671
O        11.41327449352233   -0.93364780912457    1.94518154316544
O        13.11236800791316   -5.22256637287025    0.86648131660399
O        10.69976693650116   -2.12241669807972   -1.10875141665148
H        11.40283937693613   -2.76380469884428   -1.27971811813901
N        13.39881418673025   -0.97537137835467    0.05349944600393
C        13.50659219870968   -2.25571115366797    0.33623394373871
C        14.75163664634031   -2.86812923611126   -0.30998427555447
C        15.38352580186766   -1.63561473426074   -0.89798397292223
C        16.56077046720682   -1.44503434836629   -1.58498496888893
H        17.23675304591568   -2.26572163449523   -1.77519798208121
C        16.86733165968780   -0.16259924260179   -2.02403767331982
H        17.78972944664657    0.00958296461960   -2.55855555353713
C        16.00950161873943    0.90019159766940   -1.78031618112196
H        16.27785604344896    1.88725740154519   -2.12716315085305
C        14.81686111409459    0.71789154596025   -1.09701517317493
H        14.14609034438587    1.54049793119120   -0.89201402463209
C        14.51434451953420   -0.56420931630566   -0.66983019286698
C        12.59195658330592   -2.90463756908504    1.22372655486573
C        11.66251648960565   -2.15042637032790    1.97935550432205
H        11.10051437759753   -2.74649927086574    2.72417383948253
C        12.53640534551489   -4.32660287870271    1.45293411462334
H        11.82774813836990   -4.59187547661001    2.26484717994775
C        14.36062011609757   -3.81312652767514   -1.45746250663196
H        15.26127737745796   -4.15769269130010   -1.95987578245051
H        13.82643568347088   -4.67326079438951   -1.06641682094028
H        13.74131758880964   -3.28784573772593   -2.18476713108122
C        15.67442840647259   -3.56513482798904    0.68962282711188
H        15.88582541786311   -2.90839905098817    1.53115937512138
H        15.21510914646151   -4.47763042835649    1.05429210417878
H        16.61260387683188   -3.81885643363328    0.20168037852007
C         9.96324002599017   -1.94605173592175   -2.30925300909309
H         9.15503689107321   -1.25262827167098   -2.08214669256305
H        10.58817076497401   -1.51918711269295   -3.09847984230048
H         9.54167489173975   -2.89877427029421   -2.64440401397637

