101
CSD_code = OVUBOY | q = 0 | S = 0 | Stoichiometry = C47H45BN5OPRu | MND = 6
Ru        1.84943440433478    8.46980195097049   16.23388141223742
P         2.78457421261108    6.81550287680275   17.63364127278231
O         3.80145285901526    7.28433917078873   14.32252571708564
B         0.48825265501493    9.82653495161670   14.01917352860049
H         1.21964474036327    9.58980080739303   15.29450101488520
N         2.96239006854375   10.22429086746054   17.01448086054148
N         1.41722502481317   10.56589208028414   18.82247349084134
N         0.45912423929824    8.70742698293090   17.70982186231328
N        -0.69175736610471    6.62712856066896   17.41846775564850
N         0.34913389375874    7.26376126001587   15.35982761039908
C         4.89481769847657    9.95717400551549   15.49606568762914
H         5.03859543451762    8.96361686634492   15.91410191240837
H         5.86687987751062   10.43680917235856   15.40392370846184
H         4.46655815237151    9.87106402852515   14.49735872457853
C         4.00278288222477   10.78732310060084   16.36578482255575
C         4.31378983092128   12.13251774078464   16.47305738554969
H         5.15058831369312   12.52375808344284   15.91730543044304
C         3.54893222879710   12.96975248149373   17.27651759092909
H         3.75877391511098   14.02646615738469   17.33744233826464
C         2.55156647261316   12.39496396359337   18.01418136272065
H         1.94106412101861   12.95350994400620   18.70407400887165
C         2.28405164747854   11.01500105274489   17.89377556778237
C         0.66011976205083    9.52211308077309   18.76887159889988
C        -0.18086651511754    9.08767112485124   19.88871562986996
C        -0.40062488320442    9.59764116126819   21.15140089680528
H         0.11129524816938   10.48655928031629   21.48478945811080
C        -1.30313087674497    8.92599357613641   21.96526257448793
H        -1.50013177772686    9.29774005149927   22.96038069170806
C        -1.96300354949833    7.78724287807329   21.52288204964222
H        -2.66350199219566    7.29389119400845   22.18100926763777
C        -1.74083889883893    7.27298301964391   20.25254770214683
H        -2.25083265876292    6.39105625595856   19.89924154933041
C        -0.83963289421666    7.93560058430043   19.44525808018749
C        -0.36021881288491    7.69150927794048   18.08094671037641
C        -0.44618957988970    6.45467469985952   16.09668945054635
C        -1.17202436301877    5.41283174260730   15.49716320182953
H        -1.73644784249132    4.76037087091002   16.14154621551607
C        -1.18945588962194    5.30454989481434   14.12695083816867
H        -1.73006745439712    4.50706269084926   13.63944537477635
C        -0.55502360048559    6.28952242595472   13.38561341277577
H        -0.63253602672691    6.30229767662304   12.31009512560829
C         0.19887960414054    7.27155184411129   14.02196362024022
C         0.75184417571447    8.41062559054001   13.23982228709256
H         0.27965535305613    8.40497156938939   12.25551988053858
H         1.82127189994494    8.28239110658872   13.06412660242366
C        -1.01914672112785   10.17054809823363   14.45956721496143
H        -1.53469103550774    9.32704557918008   14.94286745704797
C        -1.01677034885959   11.31296298122757   15.48718429145832
H        -0.54823476348041   10.92474758735850   16.39880458540874
H        -2.04389542290140   11.59121486096477   15.74753409975536
C        -0.26502138277670   12.57419763031345   15.05536070891674
H        -0.89722885000298   13.16763824846439   14.39694368237688
H        -0.08696844605097   13.18914974649149   15.94466544898092
C         1.08377985994717   12.31229593318546   14.37961349722865
H         1.81463045991660   12.06659855468244   15.15430184599509
H         1.41935403783015   13.23952739739631   13.90242173440775
C         1.10109335693672   11.15885860228987   13.36532321790226
H         2.14636069843607   11.04578711757834   13.04647362389761
C         0.29455759929511   11.46142804389911   12.08811939571754
H         0.65192674684700   12.39360838400666   11.63849251668351
H         0.49969044645127   10.65913560168364   11.37493526535630
C        -1.21918853806585   11.56884537068787   12.28682585795467
H        -1.46455847567906   12.55241761215431   12.68259525999074
H        -1.69993346675042   11.50717914186934   11.30459073912622
C        -1.82497605339951   10.48855053453573   13.18647574842031
H        -1.90609026103978    9.55990011107086   12.61476172905692
H        -2.84190875667900   10.79120582507950   13.45710903019488
C         2.13779561344218    6.50032574692088   19.32441223312945
C         1.19456811682196    5.48669026362778   19.49464481981514
H         0.88561948547281    4.88873396501156   18.64898876122670
C         0.63973265036403    5.24598724659728   20.73611479635568
H        -0.08194716006795    4.45125050881190   20.85199156365584
C         0.99948337109832    6.02298125114797   21.82477452264821
H         0.56094520481976    5.83808627675456   22.79388220488198
C         1.91748769136894    7.04384199016393   21.66043162306612
H         2.19816185598569    7.66214380285500   22.50035820324676
C         2.48186373181189    7.28446027594532   20.41965721830272
H         3.19852780197510    8.08418015709718   20.32144646939384
C         4.56250116668844    7.15306523458842   17.93304758711575
C         4.91758207322856    8.36194640468305   18.53170377329507
H         4.14984801267817    9.06809711208076   18.81723429873943
C         6.24534238827898    8.69231727737261   18.72669540581003
H         6.50027318843801    9.63043926384585   19.19783862085574
C         7.24373347394069    7.83076889239462   18.30304430979351
H         8.28191974434209    8.08834033552282   18.45030629536936
C         6.90285583154423    6.64748804910076   17.67114740023167
H         7.67564065982282    5.98158482909211   17.31604086345368
C         5.57384770824427    6.30940032237338   17.48317671193496
H         5.32967557611574    5.38930782628853   16.97357410268386
C         2.86262691866274    5.08296937413701   17.04971551859256
C         3.37627284681475    4.09389381297567   17.89072204172409
H         3.73078941902752    4.36249810303007   18.87708581326261
C         3.43296792691476    2.78062231287151   17.46893139337737
H         3.83365828521291    2.02280316155673   18.12633228527794
C         2.97654849744761    2.43429992836478   16.20544777770182
H         3.01767152224076    1.40538983266331   15.88007924196218
C         2.47215712056506    3.40960597313704   15.36453624483284
H         2.11833271232354    3.14798124770432   14.37831357091245
C         2.41815029076956    4.72912788823073   15.78316849297076
H         2.03045165216587    5.48484001665698   15.11549890412127
C         3.08692020466260    7.88650065170779   15.00566469520190

