106
CSD_code = OVUFUI | q = 1 | S = 0 | Stoichiometry = C49H49N3O2PRuS(1+) | MND = 9
Ru       -1.85714894662533   -0.34931230877563   15.21849241041856
P        -1.83258981551377   -1.09630454878030   13.00947792407912
N        -0.26612896941260    0.92256037841316   14.97141979837071
S        -0.68441675041370    2.49078900516205   14.71822817418848
O        -0.48313790111636    3.27399246962449   15.90999714131902
C         0.75936387820618   -0.87125562272922   16.04418502207491
O        -2.03532581278798    2.36348793080157   14.22826531513014
N        -0.38118373514699   -1.52240862156040   15.61400112506679
C         0.79194840785483    0.50836346010003   15.69072330967604
N        -0.59899272679355   -2.75664840248251   15.58492661299267
C         1.88815767677822    1.28871982839862   16.08341991695750
H         1.91308539929018    2.33006142352339   15.80977542944651
C         2.87781223469686    0.72615413259845   16.85477640564123
H         3.70969997214050    1.33377689913481   17.17596800888476
C         2.81655924437055   -0.61331473185746   17.24913354594286
H         3.58828290478148   -1.02153259006956   17.88167421620883
C         1.77392985219214   -1.41279979891285   16.84476414965734
H         1.71768498967718   -2.44096881507964   17.16801043505141
C         0.30739618277978   -3.79844292467722   15.57055687806461
C         1.52953865713812   -3.72709790356878   14.89125688949043
H         1.83493213911379   -2.79586252675199   14.43897247937340
C         2.31806610853528   -4.85222263966394   14.77364731007072
H         3.25198816359548   -4.78792264854327   14.23634203972398
C         1.92319498069757   -6.05400293068119   15.34158557748531
H         2.55237549929850   -6.92580008275108   15.25605971343850
C         0.38396794130797    3.10567412145136   13.43412366326149
C         0.24794858909417    2.60582083437084   12.15292222010080
H        -0.53098879005489    1.88983592879532   11.95030387657039
C         1.09850792489387    3.05036599344156   11.15928617346206
H         0.99676451189226    2.66278873217947   10.15669112833133
C         2.08286790957448    3.99802728843763   11.43537446817151
C        -3.23895298346456    1.36181189730575   16.71825052037915
C        -1.26020683952339    1.15102316250299   18.26443689664463
H        -1.68572222972531    1.33978967868848   19.25159610315662
H        -0.92971695978864    2.09887798415096   17.84453718673707
H        -0.37906453062562    0.52406249278913   18.38865267858880
C        -3.30640236838045    2.79913673488884   17.12663228156070
H        -3.24402883364473    2.87701064163460   18.21102699526529
H        -4.22426019253095    3.27038735557365   16.79639780014013
H        -2.46977643778164    3.35622321329660   16.70508501895041
C        -2.28416243342713    0.51244193694263   17.36415422805963
C         2.99493755488898    4.46824393785033   10.34835514411527
H         3.71988516749062    5.18369211079932   10.72519975628695
H         2.41971252406848    4.94137115073324    9.55404785476259
H         3.52823177429886    3.62588450479480    9.91062513334463
C        -1.62352359886262   -0.01774693548867   10.41337799117348
H        -0.87682420484123   -0.77468889450985   10.22030316909800
C        -1.98567292040545    0.87216170691205    9.41758726671995
H        -1.51984726436831    0.80472932122993    8.44591339024183
C        -2.94314450340865    1.84410085544945    9.66241308229792
H        -3.21810158227325    2.53720555256118    8.88216792190732
C        -3.54806029016362    1.92521775479913   10.90666406304843
H        -4.29413919012373    2.68130584453541   11.09749517017426
C        -3.19189199707021    1.03885749226590   11.90654441508775
H        -3.63173068765119    1.11008421000054   12.88959899231797
C        -2.22238823176293    0.06904661292732   11.66833058991303
C        -3.94384277838191   -2.40168576265453   11.64950588298719
H        -4.03626315066560   -1.51520911946544   11.03960454101751
C        -4.78773659609810   -3.47778535882140   11.43048504733181
H        -5.53235237489282   -3.42160356747780   10.65115455786164
C        -4.67805162588232   -4.62243723627376   12.20216126744970
H        -5.33726782055459   -5.45834956326147   12.02554573969304
C        -3.71779277688901   -4.69344569262646   13.20021436072605
H        -3.62575289612421   -5.58675201204288   13.79981886381776
C        -2.87513440445473   -3.62123788771840   13.42676820984467
H        -2.12124681512068   -3.66236103728827   14.19912205480414
C        -2.97991460371629   -2.46754923137894   12.65030700229293
C        -5.11814137701591    1.72210687154889   15.10900249560326
H        -5.84011193691322    2.08738910181683   15.84062647611618
H        -5.67348463273212    1.22359905610510   14.32302233857930
H        -4.59644939628039    2.57512449310667   14.67848790638425
C        -4.12723138982714    0.81589615728704   15.78806730246270
C        -5.18805700168406   -1.17956558523277   14.64480771135038
H        -6.17643578852681   -1.08800375493948   15.09790058701707
H        -5.00235776061780   -2.22580580422943   14.42636564193132
H        -5.19606447508091   -0.65472858615841   13.69180696960176
C        -4.14908749083491   -0.60569720617542   15.57715532823464
C        -3.83187111969756   -2.90545040047546   16.68794230873122
H        -4.08595448202956   -3.07200074998212   17.73431909031124
H        -2.99524131834299   -3.55444932958888   16.43664908287678
H        -4.68455702927608   -3.20111132904791   16.08844585708232
C        -3.46751000280870   -1.45676503894706   16.49907286079922
C        -1.85742762863521   -1.77236686873046   18.40897899395734
H        -2.57907485039559   -1.98940160111481   19.19786147675348
H        -0.99423243444801   -1.30570095399095   18.87134935374802
H        -1.54415050469615   -2.71904213961747   17.97378786686241
C        -2.51406868633832   -0.88513064666219   17.38757621060122
C         0.71366673858393   -6.13180399804912   16.01407243098988
H         0.39909011719450   -7.06514327221042   16.45517579689814
C         0.87730509414130   -0.91483314310372   12.58227212501918
H         0.74050574695167    0.07136616483459   13.00711036429398
C         2.12525831533248   -1.32319410261104   12.14997296783478
H         2.96884074419388   -0.65466366985054   12.23806767185884
C         2.28975832827799   -2.58917951480218   11.60739881291838
H         3.26338176292027   -2.90939158423385   11.26947419109520
C         1.20324649282647   -3.44072652305739   11.50111318083855
H         1.32822650360272   -4.42671808238533   11.08028978540096
C        -0.05066582029146   -3.03431680956502   11.92648718410813
H        -0.89222428002965   -3.70312462527607   11.82847339195250
C        -0.22195061905394   -1.76609179824165   12.47090524737605
C        -0.09894163909317   -5.02091843022205   16.11512911114716
H        -1.04333737821962   -5.08064034143719   16.63548597543238
C         2.18795010478904    4.49902514179059   12.72876789164775
H         2.93534846481072    5.24437777938493   12.95438674048702
C         1.34155307427805    4.05558668963752   13.73049729639945
H         1.40064493674412    4.44915925093560   14.73335143888393

