60
CSD_code = OVUFAO | q = 0 | S = 0 | Stoichiometry = C29H17BCl2F10Ti | MND = 12
Ti       -0.73736321574953    9.18759634359725    3.34182783675302
Cl       -2.18197170353928    9.34391384306928    1.69377057460703
Cl       -2.43615010515844    9.45986237641159    4.97000700448568
C         0.85060024011055   10.73818877840880    2.54489730277760
C        -0.40957194825255   11.35994276887303    2.71758657849036
H        -0.97365277182452   11.85009828192025    1.93359307033279
C        -0.82343512385215   11.26037598511493    4.06338129302563
C         0.30097775652511   10.70493732319461    4.79340847481701
C         0.51398724455699   10.48252865232756    6.16305650101782
H        -0.27887918256466   10.65735590111196    6.87827471687130
C         1.76660628757575   10.09861274043223    6.58580774688027
H         1.95543444469165    9.95548742204246    7.63893430018402
C         2.81961187438663    9.91894539533258    5.67679593759633
H         3.79725945444835    9.65854982126725    6.05336901314842
C         2.62893812983262   10.07584705079976    4.32244174058326
H         3.45006140860617    9.93972171519070    3.63267341379175
C         1.36192037803356   10.45257089575227    3.86028559708981
C         1.65355197595370   10.73174911131021    1.27373089676908
H         2.51609129880334   10.06555274825503    1.40242763816303
C         0.82222498158160   10.22892982018811    0.09162804585419
H         0.39814226423091    9.24654011808074    0.31020105957450
H         1.44396540578931   10.15137127527025   -0.79736479167526
H         0.00617554382120   10.91509606656814   -0.12426322487219
C         2.17723554539356   12.14892003972412    1.00703090346892
H         1.34807637234042   12.83859008120071    0.87098857987133
H         2.79115827575300   12.16034510137430    0.10974107136457
H         2.77654033649520   12.49621726428135    1.84534628510347
B        -2.31064442921330   11.32521950389327    4.64622132037006
C        -3.40383620742716   11.79992548273948    3.54136596628866
F        -4.62428782895058    9.76886032752419    3.40009758640598
C        -4.44316999686064   11.03790069698915    3.01590158206330
F        -6.31419138922573   10.75981183359625    1.59818073568703
C        -5.33676035023694   11.53781199671492    2.07136473733373
F        -6.05966586912786   13.33191576910856    0.70991808020949
C        -5.21107129983428   12.84422236010478    1.61744509257862
F        -4.04409392534614   14.89816192837646    1.69881471610584
C        -4.18696881851292   13.63740304732589    2.12216995501462
F        -2.33800060029333   13.89990010401471    3.53057307228038
C        -3.31594312177244   13.10600242785427    3.06476305039595
C        -2.53792758059630   12.15803272809337    6.01914171208101
F        -4.63517480881472   11.13562595535861    6.33828269963181
C        -3.70787765315461   12.00684818402163    6.75782232822545
F        -5.10353046688743   12.53553032635030    8.59721001364868
C        -3.96720186803594   12.72542372741581    7.91944339355445
F        -3.26169780646605   14.34852364592384    9.48723149095385
C        -3.03348399210243   13.65083485086242    8.37273875350636
F        -0.95565612238996   14.72934568945666    8.07478556292471
C        -1.86125504293508   13.84219158817729    7.65075771713693
F        -0.49099598094783   13.32695155186666    5.83432115092809
C        -1.63344260144066   13.10373373360651    6.49294415463936
C        -0.67222684268935    7.13699366828738    4.52353538386635
H        -1.11802456665831    6.91804511121913    5.48507653394041
C         0.64432623866812    7.58354479956496    4.31140855345516
H         1.38500057471712    7.74100430612506    5.08314847781647
C         0.87911176094811    7.60725506854836    2.91450762159486
H         1.83673815086212    7.76944740227462    2.43728194142901
C        -0.29383342082947    7.14895289373743    2.27253806281569
H        -0.40876057332483    6.95104611305388    1.21394354978368
C        -1.25851984810137    6.87941139555058    3.26473898683324
H        -2.24566888101039    6.46807486116551    3.09404845042797

