61
CSD_code = OVUHIY | q = 0 | S = 0 | Stoichiometry = C23H27ClN8ORu | MND = 6
Ru        0.62254840029318   10.40555934223956    5.76975454547789
Cl       -0.17190171259612    8.29541833550022    6.43456383159296
O         1.92210594413179    9.54353350728374    4.35761214416679
N        -0.05629693181458    9.10985842401436    0.85655158012690
N         1.93467838526332    8.91070511887746    2.18081841028220
N        -0.69861764458394   10.27615349218857    4.22822905978889
N        -1.99880089991933    9.98956902531134    1.76419501218978
N         1.87441386992955    8.25041058199171   -0.00536106238262
N         1.37410133752973   12.34449463338506    5.24285004764886
N        -0.31044307259958   11.40918893334690    7.20716815490971
N         2.05570725348720   10.48012015743451    7.13655976187776
C         1.21921372899535    8.77056338792177    1.04921190774538
C         1.32111701546623    9.38548404614411    3.25558489092907
C        -0.07603698595200    9.77200622781294    3.15364568466173
C        -1.99679794102327   10.56077400562085    4.09656177594883
C        -2.62012640527126   10.42836051703415    2.83425622789391
C        -0.71392722938807    9.60682255397156    1.89974570549694
C         1.21454164281125    8.03602376106038   -1.26508646520738
H         0.19510496649547    8.40257392391654   -1.18049403643743
H         1.20403455472433    6.97046276416295   -1.51148656236940
H         1.73906999238412    8.57315678179699   -2.06032418144018
C         3.24258827176894    7.81893593081388    0.09078135044188
H         3.31917445314362    6.75186491030033   -0.13616419669437
H         3.58684685650974    8.00300385860956    1.10475094062446
H         3.86440979951820    8.37231829541568   -0.61909766191121
C        -4.05601394464407   10.81103154449230    2.63712003825905
H        -4.70805569569271   10.12940827076647    3.18102458872382
H        -4.28485305320258   10.74197027268872    1.57788625929824
H        -4.24406993793718   11.82479574521844    2.98572230838890
C        -2.74466406987274   10.99056098337799    5.32051400027538
H        -2.56488467638103   12.04282751474132    5.55013122497172
H        -2.40531777049481   10.38557508864066    6.16081979844485
H        -3.81242035354538   10.84477503381862    5.19417947659925
C         0.52910547362355   13.30049797735218    5.97085603407443
H         1.06224716449508   14.24592718407932    6.15009973799023
H        -0.34256315950228   13.51737558768498    5.34072417596311
C         0.02309465110806   12.71714403633957    7.26306937064943
C        -0.12866314025182   13.47128786015531    8.41146840208930
H         0.16013424595781   14.51157576437618    8.41098428524673
C        -0.65513015628681   12.88070093146473    9.55202515982734
H        -0.78176664935593   13.45068462661485   10.45827705323731
C        -1.01202631183938   11.54018463060446    9.48722825963716
H        -1.42863299916227   11.03581006222374   10.34389863078270
C        -0.82518054590553   10.84507589211038    8.31017665322067
H        -1.07505454392799    9.79423959916331    8.21706111798022
C         2.74223927867490   12.32863273935138    5.77243460934457
H         3.14168642087710   13.34886115887686    5.87674359259089
H         3.36020556743117   11.78224439742840    5.04925103147565
C         2.83060765193759   11.57309452426133    7.06826120818712
C         3.69867065517061   11.92452399891259    8.08752562931925
H         4.29889395987457   12.81754941787404    8.00032971262369
C         3.78985604107851   11.11071261069164    9.20733322985191
H         4.45817233758537   11.36356670378888   10.01542650722073
C         3.01124936260945    9.96329695811651    9.25347402373070
H         3.06235864575335    9.29095367194049   10.09442249531626
C         2.15430000531519    9.68764329935560    8.20454217853080
H         1.51987179983888    8.80892934822226    8.19297013506017
C         1.41307792409631   12.69213331522326    3.82537241256454
H         2.00373411895691   11.95460732620622    3.28204381053734
H         1.85854723698077   13.68351777903536    3.67189087474752
H         0.40423681733308   12.69362162866630    3.41168510789912

