40
CSD_code = OVUZUC | q = 0 | S = 0 | Stoichiometry = C13H20CoN3O3 | MND = 4
Co       10.48711529195062    8.45968509816275    7.53928422914856
O        11.90688014292910    9.24487411823873    9.76613298604929
N         7.61578785260952    7.19711650998295    7.34972189671775
C         8.88338340124108    7.12104391279823    7.81583091763321
N         8.91964621554450    6.02325942416590    8.60514915855485
O        11.35349031444601    7.45497169546055    4.92136345639736
C         6.85360435217660    6.17145623593181    7.86550530580060
C         7.67808291893928    5.42984572287817    8.65941072905996
O         9.55815529148767   11.15750457188170    6.86981631556276
C         5.41349072571247    5.92715030292552    7.58133478726853
H         5.28579698046307    5.39969557326612    6.63606296319487
H         4.84949181049750    6.85412245154026    7.54228357282916
H         4.98846646991440    5.30781654287457    8.36759230758799
C         7.33083648957815    4.20598983438468    9.43142380506424
H         6.25655817330298    4.17313168418480    9.59655924456664
H         7.82011235940453    4.19223864291648   10.40067275546628
H         7.61178579257857    3.30581489502206    8.88478897462498
C         7.18072692090418    8.23054445672443    6.42300162324021
H         8.11027023786344    8.70901373899553    6.09169691896372
C        10.13957323056752    5.57254962111989    9.25794045859563
H        10.93573037148496    6.16802170491330    8.78922799499103
C         6.33762334832607    9.29018516021724    7.13023205425763
H         6.14890812009584   10.11500970924203    6.44873021376265
H         6.87637044958934    9.67311481454008    7.99396787862563
H         5.38141426705653    8.89595953096924    7.46415941349236
C         6.49211379507532    7.66126138029500    5.18430368228709
H         6.50735794188128    8.41168169004285    4.39829423571298
H         5.45696008629664    7.39527647745475    5.37270788383447
H         7.02677955092428    6.78463577007167    4.82605993496173
C        10.44665088733264    4.10207829218507    8.98355951087775
H        10.25635522296154    3.86550910654851    7.93911362458906
H         9.86523024310624    3.43441764516191    9.61154082227780
H        11.49886841223067    3.91915812257126    9.18580146813204
C        10.12575402260371    5.90080006828678   10.74966221478367
H        11.09830082568207    5.67454007638839   11.17824512308860
H         9.37351087743344    5.32901735478052   11.28709872177734
H         9.92404790905458    6.95956569955701   10.89487143247139
C         9.84817105110173   10.07699146136849    7.13865159544002
N        11.36395396496060    8.69533972649670    8.87201218417281
C        11.01834368070379    7.82041117546982    5.96078760412988

