34
CSD_code = OVUZIQ | q = 0 | S = 0 | Stoichiometry = C11H16CoN3O3 | MND = 4
Co        2.83510453161903    2.91746204906647   11.09733219875918
O         1.61015596241553    1.27696071511942   12.94585371158182
N         0.66516478803385    3.25902894035276    8.91388866508678
C         1.81049060892989    3.72344569025079    9.46133318806763
N         2.09131111250150    4.85683996839967    8.77984015653014
O         5.39531118145192    2.28874110680968    9.80665727002193
C         0.23186452725897    4.09558252529042    7.92301499309987
H        -0.66318108971584    3.92287378581984    7.36344097920003
C         1.13130840444737    5.10020885755406    7.83640876234114
H         1.15396714329134    5.94922542099896    7.18609115219323
O         3.46604090399516    5.20315441687421   12.82061721433940
N         2.03504552765837    1.85708625289354   12.01005607725490
C        -0.03445017459868    2.04892543224636    9.30110328512219
H         0.63844051209501    1.51232222869768    9.98039449327522
C        -0.30464038973790    1.16873319915784    8.08352558531421
H        -1.04659597967699    1.61482322893848    7.42528561700809
H        -0.67953639336458    0.20315449582015    8.41130798499533
H         0.61286160266636    1.00854436607830    7.52156994202506
C        -1.31898874552003    2.40451418705028   10.04601981697672
H        -2.00086936405985    2.95770583050494    9.40323337075480
H        -1.08914194528172    3.01318445932742   10.91764511831528
H        -1.81541267589305    1.49782180447080   10.37982739351832
C         3.24867499940333    5.71064094601744    8.96910226385959
H         3.84476991447582    5.25045210637881    9.76468367073607
C         4.08406332969849    5.75594485972261    7.69150571122637
H         4.35287132289743    4.74818323630348    7.38331322545694
H         4.99748694692906    6.31520863319577    7.87229796224310
H         3.54122869388699    6.23698701888027    6.88108540693554
C         2.81211433880063    7.10309197842647    9.41786846908813
H         2.23254096939175    7.60242029195612    8.64470761104029
H         3.68721659123274    7.70805848208916    9.63695696206604
H         2.20721402063134    7.03367441765407   10.31893248226515
C         3.19305555112026    4.33428866267102   12.11757348310092
C         4.37401327298288    2.53071040499903   10.27932577620507

