229
CSD_code = OWACEW | q = 0 | S = 0 | Stoichiometry = C106H112N2O4P4Ru | MND = 6
Ru        1.85028721761963    7.01743262324852    6.89374554305949
P         3.71988282211620    6.32162249503833    8.04986144335332
P         0.77234801113004    5.75380613982409    8.46464805509541
O         2.70804665058585    1.82916260547922    6.56824632464649
O         2.68562726544853    1.94599453439556    1.03190068870465
N         4.29947462653664   -4.38964178126191   -1.20037978762181
C         2.16143740286967    5.27743338153074    5.90884883899393
C         2.34993526089832    4.23567402741019    5.30815145304166
C         2.54327072191207    3.05958330801727    4.55689531087980
C         2.74027436366886    1.81534944512239    5.19367941620909
C         2.95626205310638    0.68804609151501    4.42835103322658
H         3.13678201485715   -0.27552648804611    4.87946881057121
C         2.95176839350965    0.76064662163160    3.03220956249858
C         2.71522502087512    1.99330659092944    2.39195593925290
C         2.53079166417848    3.12575201050676    3.16139809866312
H         2.37465320789195    4.09062967848783    2.70279352965829
C         3.19876115687251   -0.37041768754051    2.23882831236965
C         3.43340628096259   -1.29607579394248    1.49610203877306
C         3.71585766381151   -2.34520420355174    0.60436114239750
C         4.02685633950207   -3.63437029824521    1.04917242496549
H         4.04794411162227   -3.85817259657063    2.10522315099173
C         4.30555484591083   -4.60571344020208    0.10618120482481
H         4.55044281092333   -5.61670676783339    0.40782706139204
C         4.00281943388807   -3.16862850030227   -1.62098873729075
H         4.00949784126518   -3.03399408062200   -2.69565038137840
C         3.70262655313173   -2.11742030808473   -0.77726193571240
H         3.46149453396243   -1.13839927217638   -1.16170237195057
C         3.25889158720710    4.94657908730687    9.22174347864707
H         4.05517128883226    4.19563432177970    9.23979365859582
H         3.21193631019862    5.41637376051107   10.21169565280637
C         1.90423358644539    4.35437470907015    8.86550521211348
H         1.49292971167970    3.73695895589158    9.67088202097468
H         1.96602803308262    3.74622316493412    7.95599412412066
C         2.82046858416442    0.59950771315912    7.24668235260909
H         3.81626553734252    0.16179440259897    7.07967576441443
H         2.06382696884379   -0.10847359035686    6.87991024826372
C         2.60676610682881    0.85380012267463    8.73441874932067
H         1.61281450216754    1.28376094139021    8.87265987408387
H         3.34101646161293    1.58637488651313    9.07552015475332
C         2.73585323506875   -0.42728826919234    9.55223792997086
H         3.73253936710435   -0.85153123540455    9.40879547620397
H         2.01019945728430   -1.16088737496095    9.19322657440867
C         2.50355599303974   -0.17389992920630   11.03975887370532
H         3.22898566785298    0.56033217096430   11.39876799767901
H         1.50637531397194    0.24991188483167   11.18152587967326
C         2.62947280238506   -1.45127733508035   11.86632688532887
H         3.62529021154757   -1.87663611008705   11.72265135519289
H         1.90258436245307   -2.18415251883795   11.50907391582043
C         2.39920038188498   -1.19174217386235   13.34995616737074
H         1.40383930776901   -0.78518580121396   13.51605058331066
H         3.12748618814396   -0.47848662550430   13.73014703188438
H         2.49257794624470   -2.11349725065941   13.91904276994704
C         2.58402065158651    3.14202930164896    0.29538958078303
H         3.40568293485082    3.82139609891899    0.55890101519733
H         1.63286401021344    3.65115040052586    0.51088865217473
C         2.65359430329331    2.76382885083275   -1.18115699541400
H         1.84291541025731    2.06363731335542   -1.39123660380960
H         2.49978453371798    3.65941752637877   -1.78597977329761
C         3.98827429760758    2.10577275358855   -1.52603010989554
H         4.79385099604346    2.83667490204955   -1.41932706512620
H         4.17080901630605    1.30326471680956   -0.80867274524797
C         3.99979945846478    1.53561517967913   -2.94127676782392
H         3.17552786556438    0.82618072344432   -3.05035580687843
H         3.83518409310330    2.34152418990339   -3.66117715611519
C         5.31409072855318    0.82830899884013   -3.26389089029635
H         5.48910038383020    0.03943983127706   -2.52856366698889
H         6.13737322771794    1.54206239395610   -3.18377000824045
C         5.30270062090187    0.22157615341767   -4.66138804210074
H         5.14533498240119    0.99325915243361   -5.41223008320779
H         4.50309264273750   -0.51051969352436   -4.75225050822761
H         6.24703390855961   -0.27497705521766   -4.87154538635596
C         5.07014180945881    5.59286914737029    7.06958405747635
C         5.05917938580790    4.24953743206785    6.70473852491265
H         4.27864762195747    3.59500607826336    7.06121850996416
C         6.03230946856148    3.75348861980640    5.85499760154477
H         6.00895022985858    2.71202126403493    5.56719108679431
C         7.02487630218039    4.58575660847814    5.36481480587566
H         7.78157077588430    4.19429315109067    4.70051871914114
C         7.04331711945956    5.92338279353438    5.72649284342323
H         7.81301716174763    6.57993105555948    5.34710154029248
C         6.06794814763386    6.42676350866001    6.56706183129036
H         6.07604265060788    7.47274435765083    6.84048988104285
C         4.65452966924100    7.30839491965150    9.28182946900404
C         6.00285138747550    7.12355034308542    9.56722931559948
H         6.58225972981423    6.39270966879391    9.02196385288754
C         6.61047030759877    7.87657616092509   10.55641446492433
H         7.66047997790324    7.73237420338046   10.76739914570312
C         5.88221623168856    8.80948693713669   11.27548374860735
H         6.36610042870778    9.40243166159849   12.03800361595566
C         4.53060135765101    8.97123793348991   11.02021178223903
H         3.95464204176621    9.69069936483307   11.58448251099742
C         3.91934432562080    8.21761833082396   10.03632068333853
H         2.86346740253713    8.33659672982605    9.82768786812993
C         0.35420629164043    6.44555150801202   10.10632140086656
C         0.71223079519893    5.89255033806977   11.33218625393900
H         1.30562109610790    4.99206966259297   11.38742242649704
C         0.29168738189767    6.48291765088442   12.51149019877197
H         0.57337487271890    6.04366877855483   13.45801611372522
C        -0.49710074191175    7.62058283583791   12.48573441302698
H        -0.83647585636184    8.06023121029235   13.41284091669060
C        -0.85145274079296    8.18301753948348   11.26997175106675
H        -1.46313810467322    9.07312987045788   11.23469295909904
C        -0.42175444813900    7.60268682517257   10.09188412930521
H        -0.68505544731298    8.04271199130649    9.14280153610976
C        -0.75364069115025    4.82705997084269    8.09069681512614
C        -0.85798397030110    4.26911433469372    6.81913928375861
H        -0.03814512950289    4.38876952161243    6.12305923285026
C        -1.99696188056262    3.57921721581124    6.44958256178897
H        -2.07175910673214    3.16051537240272    5.45639981681089
C        -3.04207411822591    3.43772056516760    7.34876764079983
H        -3.93752919225000    2.90684691806061    7.06007014744024
C        -2.93784905135097    3.97990519433625    8.61924861498603
H        -3.75042776569430    3.86665596868491    9.32271071675224
C        -1.80043576165735    4.67396508697180    8.99380014979813
H        -1.73458627661596    5.10495675906598    9.98250766884082
P        -0.01845287475560    7.71341287477572    5.73778181369762
P         2.92934225776817    8.28094868492783    5.32337396009100
O         0.99338304111100   12.20559232791749    7.21921683928564
O         1.01500249542324   12.08937464379163   12.75562221848625
N        -0.60353883371901   18.42551458068563   14.98528080517422
C         1.54356203948145    8.75783482882361    7.87942437571591
C         1.35159034432004    9.79895750421329    8.48014211072127
C         1.15816948845451   10.97541922345065    9.23079508296956
C         0.96096723515911   12.21952427521591    8.59378101199012
C         0.74457645998647   13.34687620298791    9.35895650197274
H         0.56378755532605   14.31033179366031    8.90769419622606
C         0.74889342196411   13.27447414589255   10.75512920710272
C         0.98565771339289   12.04196621078875   11.39556634527039
C         1.17053159861962   10.90950087828831   10.62629056567200
H         1.32685921351199    9.94471876668621   11.08503010056989
C         0.50108383452432   14.40547050631610   11.54834238790170
C         0.26502959470505   15.33126318039518   12.29039045597768
C        -0.01746681669322   16.38074794326248   13.18168685642038
C        -0.32661574123766   17.67016245800774   12.73628288192060
H        -0.34541015901139   17.89399101179960   11.68019557067604
C        -0.60659486024837   18.64167051726620   13.67872202463483
H        -0.84993888717044   19.65289546842072   13.37660513828139
C        -0.30893974361789   17.20419898629356   15.40645097224922
H        -0.31788901434384   17.06955177598772   16.48109825049389
C        -0.00766222872709   16.15281991965492   14.56331623057944
H         0.23173995252077   15.17356525517727   14.94824899568987
C         0.44280112037403    9.08840311343472    4.56599692128979
H        -0.35342234956454    9.83940540041878    4.54796635635636
H         0.48972530944732    8.61857847747007    3.57605941370285
C         1.79752918949726    9.68040548063150    4.92231874378538
H         2.20891093155913   10.29773636100349    4.11691627498940
H         1.73572524873680   10.28863954617205    5.83177438320305
C         0.88094907298143   13.43519183363709    6.54066420554808
H        -0.11497686483156   13.87274443733328    6.70732402851554
H         1.63734399791573   14.14333550222105    6.90763153332665
C         1.09519824068070   13.18087184627066    5.05300974375277
H         2.08922707439903   12.75096434775402    4.91515740917256
H         0.36111830311991   12.44824151325365    4.71166630051722
C         0.96635998377853   14.46190502787771    4.23505975981884
H        -0.03046960316367   14.88600519573947    4.37792084163343
H         1.69170118949051   15.19563349281719    4.59443764426866
C         1.19954608783368   14.20848170965069    2.74768219530251
H         0.47439679792675   13.47416690774285    2.38827753957764
H         2.19684861989283   13.78475290866625    2.60652522045413
C         1.07401633382887   15.48580332184642    1.92096854872545
H         0.07804540643621   15.91103679653514    2.06394554982796
H         1.80056461137713   16.21879081332636    2.27868249189301
C         1.30534062910242   15.22623239274712    0.43750848849730
H         2.30086769874058   14.81979457258588    0.27211985210497
H         0.57740877259925   14.51286697554967    0.05684682840094
H         1.21224010340801   16.14794957291318   -0.13168501273907
C         1.11750017748234   10.89341075135688   13.49213091573357
H         0.29627950219517   10.21347093251193   13.22871849270592
H         2.06898327210131   10.38495090174580   13.27650980523188
C         1.04786462673434   11.27151849783993   14.96868935484580
H         1.85798885843006   11.97238465163909   15.17865601547931
H         1.20252678126234   10.37603191775416   15.57344811500244
C        -0.28731480147959   11.92841269066062   15.31382280471131
H        -1.09230962023620   11.19688296465225   15.20700965668502
H        -0.47056381812229   12.73093893617925   14.59666819868735
C        -0.29912726281662   12.49816119964234   16.72923251575872
H         0.52446257091902   13.20838164851080   16.83835168575977
H        -0.13356477492953   11.69219238788013   17.44885098192786
C        -1.61406658145432   13.20403167011041   17.05235248607742
H        -1.78993316970056   13.99314098578688   16.31748704771800
H        -2.43667474088187   12.48953501506602   16.97192361708884
C        -1.60309675414883   13.80997735083891   18.45019615043968
H        -1.44492167056837   13.03800816837792   19.20057393910893
H        -0.80416939192719   14.54277449244781   18.54140351870008
H        -2.54788076598601   14.30550742081669   18.66074346573143
C        -1.36850603617250    8.44202611488722    6.71839643541576
C        -1.35756301216886    9.78533416064039    7.08328684453853
H        -0.57712360944765   10.43991820365837    6.72670387524744
C        -2.33061672688618   10.28128349535792    7.93316835692357
H        -2.30729645783202   11.32274405661201    8.22099799316640
C        -3.32304567246382    9.44891961472415    8.42347437939048
H        -4.07965602999262    9.84029916288304    9.08791325417446
C        -3.34145027691415    8.11130455054322    8.06175225151813
H        -4.11104634079912    7.45468295458544    8.44122707682270
C        -2.36616855399802    7.60803022137178    7.22102325049986
H        -2.37424178567417    6.56206886109932    6.94751678807723
C        -0.95304986495380    6.72649432680851    4.50595312893540
C        -2.30137009576655    6.91136601608462    4.22063849923713
H        -2.88073038834835    7.64220750343965    4.76595558067075
C        -2.90901083669825    6.15841308325421    3.23142341894379
H        -3.95901203344530    6.30267364247096    3.02045478590375
C        -2.18078496303704    5.22551987561362    2.51229820639200
H        -2.66469093211843    4.63263294795168    1.74975286838134
C        -0.82917102220283    5.06371397514425    2.76753487876445
H        -0.25322976355454    4.34426072844010    2.20323714691218
C        -0.21788064464080    5.81729961806356    3.75141941963728
H         0.83801392204018    5.69836433066650    3.95993974106057
C         3.34767136980054    7.58921975670127    3.68173111925214
C         2.98970799098348    8.14208109318835    2.45578136109656
H         2.39620309901977    9.04247886750077    2.40040930581403
C         3.41048963758237    7.55169160276363    1.27656746565664
H         3.12887482528963    7.99083920317788    0.32997235587653
C         4.19942928998240    6.41413533436041    1.30249448977251
H         4.53898170475995    5.97446591651618    0.37546263921542
C         4.55367467868309    5.85180972762977    2.51833732898544
H         5.16543581614745    4.96175575792840    2.55375503470164
C         4.12375850168948    6.43217188093740    3.69632721253833
H         4.38700349264942    5.99225817003790    4.64547147023143
C         4.45527808099754    9.20778002399840    5.69733911136258
C         4.55954362304512    9.76563635607688    6.96893648781148
H         3.73964360169975    9.64588473753180    7.66494886957032
C         5.69848892647477   10.45555283373276    7.33858324493839
H         5.77324911187720   10.87417183086000    8.33180360306455
C         6.74362569520371   10.59717135902601    6.43943959441496
H         7.63905673471356   11.12805113591316    6.72820600326516
C         6.63946045256687   10.05509274529906    5.16890917157401
H         7.45205429750502   10.16843957710395    4.46547808236928
C         5.50208684332331    9.36101391341505    4.79427083121870
H         5.43628298294105    8.93011327722231    3.80552094798895

