27
CSD_code = OWAFUO | q = 0 | S = 0 | Stoichiometry = C9H11ClN4OPd | MND = 4
Pd        4.38719303433222    3.93809699796929    4.33563374756614
Cl        3.86189889035654    2.05548465400612    3.30238950946205
O         3.71888643053834    5.02131513649405    1.82018992841759
N         4.89693339225743    3.06098428678808    6.29196749738698
N         5.26733403548560    5.31859285341687    6.67952410598724
H         5.54836995951154    6.09050751586390    7.27328044288294
N         4.89034876485255    5.51806893517778    5.38847325193300
N         4.11059188413101    5.27293162839469    2.97140236244273
C         5.27571886751362    4.03151914237294    7.14808907476009
C         5.65985727041684    3.73675814530383    8.46227436008010
H         5.95950426168857    4.53051269987828    9.12878490727834
C         5.64457163934114    2.42113165098348    8.87409618511697
H         5.93643280259239    2.16787679065254    9.88195755286461
C         5.25147433356389    1.42750321705686    7.98223275774614
H         5.23057918859130    0.39245087184126    8.27858691180892
C         4.88644912171530    1.79676147099284    6.70099819564594
H         4.57099417249989    1.07497008147772    5.95682387448982
C         4.82170296143070    6.64953878800732    4.74590519717667
C         4.38231997110058    6.50918520421335    3.39169857944787
C         5.16940001691300    7.96556806977679    5.37713518302890
H         6.19193786003230    7.94618417262174    5.75695275722059
H         4.49625051922533    8.17621180985779    6.20958461529554
H         5.08601894023345    8.77071114856479    4.65638986089684
C         4.21784453319618    7.67032898961429    2.45282081709295
H         5.16306924148374    8.18826062362411    2.29522455456817
H         3.48402876681295    8.38166974395505    2.82947252349843
H         3.86978914018352    7.28167537109407    1.49801124590423

