87
CSD_code = OWAMUW | q = 0 | S = 0 | Stoichiometry = C31H48CoN5O2 | MND = 4
O         3.63324930589051    3.40810417618589    9.79795451961570
N         3.00796241025799    7.80917936883713   10.50472919304681
C         2.81415929331670    9.10041480906251   10.91535638301478
H         3.61851074898228    9.78228036570667   11.09707550365916
O         0.69708518621910    6.91700297515291    7.40423169398317
N         0.88799519010833    8.10026740932493   10.66623102628071
C         1.82276665896279    7.17630973676034   10.34422426391611
Co        1.43512499503653    5.32997987022140    9.50719476874357
C        -1.53889309371828    3.61787381824001    9.48104964769714
H        -0.93095933799377    4.20231066198956    8.77548209849236
C        -1.57377705911782    2.16490349156617    9.00445922798334
H        -2.15382792276555    1.55677699822375    9.70358370920454
H        -0.55565782937104    1.77175520987359    8.97463932134055
C        -2.20591902043042    2.09536512296048    7.61760506579556
H        -1.58594548753051    2.65436643206611    6.91413268804293
H        -2.24295613597385    1.05758477237682    7.28113385886663
C        -3.61209139226531    2.68820720654144    7.63655518299862
H        -4.04196816532897    2.65387711342672    6.63397467975187
H        -4.25009773362317    2.09155509032616    8.29367767961093
C        -3.57783766927349    4.12978785738228    8.13553302359238
H        -4.58930993582818    4.54039984540906    8.16452856132933
H        -2.98749749719758    4.73808375782907    7.44718585110973
C        -2.95342116670840    4.19607314644825    9.52574143514812
H        -2.91500666824425    5.23129959682985    9.87219095005123
H        -3.56819371759583    3.62813271017210   10.22881431362638
C         2.66573936916945    3.55836256788134   13.34953683063339
H         2.90086913620090    2.95331627160241   12.47259314127226
H         2.15333880304152    2.92124325088274   14.07474704381825
C         3.94827615625058    4.10945260082488   13.96364821056372
H         4.48711073924160    4.68433070446255   13.20779068254261
H         4.59147537503646    3.28452165337528   14.27499500573956
C         3.63331980596675    5.00289164050404   15.16003511104225
H         4.55784154358521    5.41572137549321   15.56822606597203
H         3.16126941114405    4.40525225047162   15.94362249034434
C         2.69438769769604    6.13675698517142   14.75760931635799
H         3.18820523514765    6.77990240261561   14.02540666476967
H         2.45386430570303    6.74859357727550   15.62952221068828
C         1.41145331266141    5.58019858311027   14.14830849396785
H         0.88236776467800    4.98756268995586   14.89799981135652
H         0.75746472841936    6.39928677288875   13.84078705302281
C         1.75135349533734    4.71355319547931   12.93548753661045
H         2.27343841159850    5.32900996901982   12.19305651803426
C        -1.31585766688599    3.16761881964575   11.92277337184339
H        -2.22024334019301    2.59930467560264   11.98954394997249
C        -0.40805776621847    3.47414134689158   12.87645177073354
H        -0.38748580654958    3.21596239427177   13.91483808986781
C         0.29122258831189    4.39325356514494   10.95723322470176
C        -1.15575574516703    8.77543143898748    9.49422168090061
H        -0.66159252394330    8.55942864692254    8.54558406544220
H        -0.99616599215598    9.83070128237128    9.72916102925289
C        -2.65051797765310    8.49567229097895    9.38356978437519
H        -3.08792289181196    9.13706705075404    8.61651379404450
H        -2.80023036270997    7.45954095074782    9.07328114703643
C        -3.34597785017448    8.73637134576356   10.72060106451152
H        -3.25900866373757    9.79210451743171   10.98880492677975
H        -4.40880428773107    8.50163133118176   10.63440546536077
C        -2.71672380336540    7.88505930366940   11.82000789825239
H        -2.86320478894524    6.82633923667700   11.59304738008784
H        -3.20427593562401    8.08997500034983   12.77558786398101
C        -1.22253174206033    8.17148174093454   11.93212845101698
H        -1.07562468085004    9.21378274900903   12.22416327244237
H        -0.77700093819033    7.53840109468525   12.70326009877384
C        -0.54115310204113    7.90162072204236   10.59020356282640
H        -0.68432141461869    6.84729406462206   10.32335496426955
C         5.26024212543012    7.35766189826449   11.40149337171638
H         5.46226958380236    8.40970268281563   11.61576282614993
H         4.80715169481610    6.91343124782527   12.29099615514028
C         6.57083648006988    6.65134150087652   11.06750422174531
H         7.26029102527262    6.73273755286079   11.91050617540680
H         6.37439733728253    5.59123418956154   10.89409382380718
C         7.19802452503349    7.26110018704789    9.81705665738397
H         8.12602214385176    6.73914167420022    9.57706220233946
H         7.44427822366850    8.30861478948236   10.00876192688066
C         6.23396858223942    7.17307770600823    8.63715672863009
H         6.03745632216139    6.12430408338685    8.40648578089535
H         6.68170189222397    7.63261215876868    7.75424825189107
C         4.91546171977540    7.86572995872584    8.96595157850678
H         5.08801910347025    8.93184680339993    9.13424525455975
H         4.21551287549829    7.75982808775834    8.13530634941020
C         2.79148300498909    4.20377847771525    9.68763541144579
N         0.83765298062363    5.99373676652112    8.16051436995326
C         4.30166099013913    7.23454923098351   10.21726278362195
H         4.11883000539111    6.17321981418116   10.01145049747611
N         0.56496852296465    4.22469115468944   12.27212320533823
C         1.47913649201908    9.28313833742198   11.01815082102092
H         0.92403887149783   10.15163256736113   11.30585494854249
N        -0.87453905659536    3.73595752753477   10.75858296801984

