71
CSD_code = OWANEH | q = 0 | S = 0 | Stoichiometry = C23H40CoN5O2 | MND = 4
Co        4.71345113296833    6.86771477745045    7.67756191099075
N         3.38426013033724    8.63613235330259    9.88491526602500
O         6.90468631576158    6.45256954580084    9.58618566371834
C         3.94855003990191    8.54959619666188    8.65627630753119
O         4.64035198312575    5.92729095933966    5.11738617921653
N         3.89226223184752    9.80024172818894    8.14222133728880
C         2.97061825507717    9.92909481973325   10.13491571301678
N         1.83174206297447    5.88986390701265    7.25778812921054
C         3.29862708015113   10.66512780635613    9.03585985749831
N         2.97981646149078    4.34424882951871    8.23315876370852
C         3.31967995948162    7.49466409967195   10.77919446016799
H         3.90332039571031    6.72293822745840   10.26130223069293
C         4.48052709347612   10.11076275548415    6.85174137455279
H         4.73098801003341    9.12501051801306    6.42922599505566
N         4.83596444837882    6.61831679101734    6.08050188728591
C         3.99329347133052    7.77456208063111   12.12118045673105
H         4.94588285917178    8.27352999327596   11.96017410876984
H         4.18679461531583    6.83238247027183   12.62785875381028
H         3.37649517335584    8.38799394963056   12.77118331923517
C         6.01169096196299    6.57701968382394    8.85260867030972
C         1.89581614261355    6.96212785480409   10.94376647849749
H         1.50511456294865    6.64403803242682    9.98077986224249
H         1.22264534337665    7.70447346191418   11.36464168307110
H         1.90795584407394    6.10203314248874   11.60874867662425
C         3.50503511530744   10.80747630039235    5.90656944625216
H         3.87326987228953   10.71930925914355    4.88770853735870
H         3.39825515097381   11.86399438435163    6.13555867359628
H         2.52715320536871   10.33375567165205    5.95739510292450
C         5.79193074031181   10.87865771091027    7.00911128534370
H         6.27426211672410   10.96992891126229    6.03966829151455
H         6.45670399566588   10.33201583649205    7.67385998498535
H         5.63950636066583   11.87763423713497    7.41061183400114
C         3.04685572727894   12.11460184914234    8.80455420167599
H         3.91117382084290   12.60388683430942    8.36426157434286
H         2.83337622912987   12.60275907925220    9.75186358252589
H         2.19205418436894   12.26260779389164    8.14358382172229
C         2.31665508271033   10.41513930892902   11.38283133974829
H         1.73456259363642   11.30765340807687   11.16529711451861
H         3.06124988536942   10.67126817467985   12.13778093771629
H         1.64463532183125    9.67249889279723   11.80183296780789
C         3.04890152116864    5.61935592445028    7.78781316771082
C         1.00286073294864    4.79395208340403    7.37752501804777
C         1.72798957078855    3.81918272845578    7.99553230409910
C         1.54592019624548    7.14587614916791    6.58743323740102
H         2.50648443771769    7.67626166072406    6.59524168379500
C         4.13054708528003    3.67013258508706    8.80718863441630
H         4.94861889202909    4.39270794300105    8.67919884341935
C         0.54265535424895    8.00898891496656    7.35239368078175
H         0.42277941194616    8.95889534164533    6.83664764497918
H         0.90993464680623    8.20967831718727    8.35564703960996
H        -0.43616431959861    7.54326008749832    7.42860080903111
C         1.15034620324813    6.93285388611481    5.12819491220487
H         1.17998954418124    7.88563978112824    4.60509603303840
H         0.15146586946046    6.51952682075579    5.02649102552570
H         1.86358261318385    6.26315027185490    4.65355246550929
C         3.96405558792463    3.41061011464509   10.30388475001838
H         3.24847046399770    2.61839370629403   10.50911251821167
H         3.63434090504179    4.31727846390407   10.80479434760741
H         4.92261064298434    3.11600897859203   10.72234989630229
C         4.50415689022572    2.40929253871673    8.03242597055246
H         4.51349678865437    2.62312228067075    6.96645043738893
H         3.81883102593266    1.58921751560338    8.22568010318160
H         5.50237591050808    2.09482597967003    8.32537131924937
C         1.28091366460008    2.43757770518491    8.32330459659424
H         0.19702722659507    2.41702301326253    8.41540658186987
H         1.70599330117044    2.08721427747515    9.25859893605252
H         1.56062991507675    1.74233928074376    7.53125504602253
C        -0.39829527162065    4.68862447462574    6.88309856246832
H        -0.41640184970556    4.34164603437246    5.84921674105999
H        -0.92363913869725    5.63658967363981    6.93800996139488
H        -0.94419179968338    3.96505183046478    7.48551795116984

