72
CSD_code = OWAPAF | q = 0 | S = 0 | Stoichiometry = C29H36CoN3O3 | MND = 4
Co        4.04618022470036    7.66693494146621   13.03017160119386
O         2.49493287845490    8.33918109059983   10.83295685633661
O         5.91255079128145    5.43629900449454   13.41439884024395
O         2.96619662180421    7.23603000925429   15.71912295366390
N         4.76472028219918   10.64620503870185   13.01327819702593
N         6.42579374699698    9.47583836405814   13.68515375193549
N         3.12177540594841    7.95016382210768   11.75812366303179
C         5.16288405376051    9.37101609538138   13.21503641854858
C         6.80391022223158   10.78910991863977   13.78116363594962
H         7.77183675504256   11.07784966205228   14.13557023843837
C         5.75435978928622   11.52809571228243   13.35773773646057
H         5.62674030912538   12.58743554595973   13.27305009818446
C         7.31242296182679    8.39976621015453   13.97222018253384
C         8.04982303414949    7.84242780499183   12.92270429994878
C         8.96963867187919    6.85034205745356   13.23072321917847
H         9.56017890857115    6.40598855686019   12.44585602136406
C         9.13782776393730    6.41979054946089   14.53297404262942
H         9.85753332353507    5.64562465871034   14.75350025337289
C         8.38483838550674    6.96857661755658   15.55222947863643
H         8.52101392231748    6.61618762277420   16.56227249479613
C         7.45541173815016    7.96648004096982   15.29115838278794
C         7.87076004926397    8.32297041704647   11.50095533151609
H         6.89265935264891    8.80731168431448   11.41740240991570
C         8.95419283405036    9.35145050916650   11.16195902342699
H         8.83099098643387    9.70260957329021   10.13988593450856
H         9.94200642291976    8.90597299292165   11.25824738598745
H         8.89808942344196   10.20938287287132   11.82930108245005
C         7.88369913578596    7.17393240475241   10.49321235698762
H         7.56520358576303    7.53839324993356    9.51910493795612
H         7.19801893116916    6.39051782859906   10.80629241351133
H         8.87762936761892    6.74802035546640   10.38380222186844
C         6.64032882371589    8.57130170407329   16.40990637257081
H         5.81752322533403    9.14774233494593   15.97417197128329
C         6.02425722939993    7.49319848569953   17.30253439567448
H         5.51879692334935    6.74435625560719   16.69804030226698
H         5.29590947374970    7.94161970279041   17.97425190264851
H         6.78063378607672    6.99862790022138   17.90615214540921
C         7.51143182851612    9.52027503778980   17.23842583374369
H         7.90298299372124   10.32661157400713   16.62169203175955
H         8.35170445630413    8.98279878861375   17.67193348281031
H         6.92707405230847    9.95713684777517   18.04494091580704
C         3.52906149691185   11.05980988192001   12.43668389781618
C         3.48771771037537   11.30873013468152   11.06198479545920
C         2.29105598775006   11.75221773302606   10.51653685305991
H         2.22818593791403   11.95120447871761    9.45870385422813
C         1.17680582809635   11.93721652533618   11.31133827084769
H         0.25264229415752   12.27913659472706   10.86963722877755
C         1.23865228749268   11.68660091862774   12.66832409836306
H         0.36139939324841   11.83910318642820   13.27651018424093
C         2.41414465897433   11.24032801040002   13.25695881553060
C         2.49046508185432   11.00800149616118   14.74767602401922
H         3.37897333942614   10.40656835804653   14.96644254499085
C         2.62927124359421   12.35285890841948   15.46789476161088
H         3.52698902681148   12.87549719400863   15.14275462188391
H         2.69110523537739   12.19795654500874   16.54267459789385
H         1.76990712765086   12.98589044076943   15.25811891739581
C         1.27750219601444   10.23815946756242   15.26997323205255
H         0.38138526040707   10.85310050220345   15.26035010056795
H         1.45618124373383    9.91811488722482   16.29398930713969
H         1.10180098606723    9.35521329634908   14.65984062597808
C         4.70795849817269   11.13359017153166   10.18728469068244
H         5.46820774880239   10.57453810080799   10.74194248828798
C         4.39110323728485   10.33837571025614    8.91991247241634
H         3.78526747255225   10.91902560746441    8.22955379997651
H         3.85126284767357    9.42897594061920    9.16937805290876
H         5.31499648187623   10.06732127853657    8.41318745407678
C         5.29052116754212   12.50438530552258    9.82982974666982
H         6.17113475074489   12.38468548177760    9.20257614225819
H         5.57858257827784   13.05082527153337   10.72571985514588
H         4.55837132066054   13.09864612141579    9.28808239808010
C         3.38732878342800    7.45380443540466   14.66894615249602
C         5.24395610484701    6.35634417169203   13.22827919677754

