94
CSD_code = OWEBEZ | q = 0 | S = 0 | Stoichiometry = C43H44FeN2O4 | MND = 5
Fe        6.01978616019074    5.83759268529880    4.89131297498749
N         4.09150041089208    7.98157936071286    3.75541766356321
N         3.74495058403560    9.44580561013149    5.31233834898802
O         8.00898857001817    7.97544124267916    4.61857999285640
O         4.59824902789243    5.05978633603835    7.34107776508031
O         5.42162275329521    4.47025418641355    2.34923731070520
C         1.89849550896110   10.75500848200557    6.21395586124491
C         1.47233210609719   11.87555796618875    6.91470097548882
H         0.41761273504906   12.02818395734365    7.08094252315247
C         4.74553916622433    7.47434405912517    4.86689285110506
C         3.92120995292441    7.27439195508582    2.53063158001703
C         3.27596326642403   10.58674681943595    6.02106403315799
O         8.03282671418964    3.82048516806766    5.43507496826508
C         2.89053100626014   10.06748861329045    3.05290188679639
C         4.48467388277854    8.41503275318198    5.85755454599666
C         2.11674789986459    9.58699476399707    1.99332617888639
H         1.94569721838605    8.53063450053506    1.87926088996992
C         3.52053202276728    9.17491342896669    4.01452073517997
C         2.00949891877151    5.99630935188506    3.64270493904516
H         2.34021869579662    6.57026033109598    4.51439513136901
C         5.32134193434518    8.27234500752528   10.02845412779527
H         5.52562131195085    8.22575447676206   11.08776142722966
C         4.74004173482006    7.56803127589495    1.44008491468109
C         4.79035663960488    8.37837793858081    7.29020873830705
C         2.70262080058202    5.67029829238951    1.24956746555165
H         1.92449530762941    4.92801443152973    1.16169421851512
C         2.89553007705988    6.32141906001957    2.45986369888597
C         3.72825679184522   12.61710525415489    7.19886758967261
H         4.42446352721410   13.34748418672709    7.57901018263434
C         3.07668370899817   11.44896780749337    3.16341115326548
H         3.67706249016595   11.85061238307922    3.96225342439314
C         2.12478475567196    4.51622310838629    4.01267126740890
H         1.78768912471480    3.87816766436827    3.20017255068908
H         1.51874658297115    4.30633436861026    4.89121756490462
H         3.15956454650920    4.27068191584746    4.24434102412156
C         0.86579300901961    9.77608004979661    5.69838635703732
H         1.36326165500002    8.96559409366903    5.15790327417921
C         4.50759999675120    6.88985533343678    0.25066338698534
H         5.12806772585883    7.09208775008266   -0.60818422358472
C         4.20801182995541   11.51001798660364    6.51137996448856
C         2.37500422484602   12.79932356431284    7.40245163051249
H         2.02226813927839   13.66511323136498    7.94225242297473
C         5.69800202665004   11.36573091249112    6.29406074281556
H         5.91605483788711   10.38674966969370    5.86058835818371
C         4.04452718705671    8.55867499403993    9.57765331221465
H         3.24596871165852    8.73614281746791   10.28329485615651
C         6.45259645945580   11.46519474398410    7.62282238842240
H         6.45357856659914   12.48525568122122    7.99841909771665
H         7.48497307629250   11.15540482389105    7.48175610489756
H         6.00042062077010   10.81963091612768    8.37139807280187
C         3.49863069400423    5.95226680616085    0.15546852463547
H         3.33541721015939    5.42995157811794   -0.77531904326108
C         5.61055103972238    9.76187165909149    0.60402894077698
H         5.58572119538563    9.43780148656239   -0.43330050217355
H         6.40693402547040   10.49441653069415    0.71431177567074
H         4.66243186254425   10.24425510453502    0.83435850844653
C         6.07423343540499    8.10101509500274    7.75480310663685
H         6.87335153558926    7.93666083527749    7.05106302078208
C         1.74498903069355   11.82550289441548    1.20186005065325
H         1.30383429077760   12.50303651673844    0.48710807825611
C         0.06984946294739    9.14448271849318    6.84475681775867
H         0.71471898036338    8.56459702028436    7.50088424615816
H        -0.68536248186435    8.47536694121887    6.43858798530732
H        -0.42998606216404    9.90383515502724    7.44045363220472
C         6.33316096117783    8.04412425080724    9.11126556885550
H         7.33325125918575    7.82281309639517    9.45291324851637
C         3.78079501570935    8.60891275359724    8.22203325681197
H         2.77598607151450    8.81216343683052    7.88708215202909
C         1.55282774591344   10.45951289698005    1.08196349918198
H         0.95737185667355   10.06514375319105    0.27257753851794
C         2.51037323044758   12.31413956127658    2.24778430068766
H         2.67249771032514   13.37640671298825    2.35187475425384
C         5.86080103419112    8.57448141144365    1.53739315658786
H         5.91514019089369    8.95165535084271    2.56385884240127
C         7.20076667690331    7.90742086537650    1.21988374984166
H         7.34076533205890    7.03198060208058    1.85132408617606
H         8.01593829139650    8.60205988456635    1.40840446208188
H         7.24742206415552    7.59500437352444    0.17995572287947
C        -0.09343574437342   10.47239282319667    4.72758103854932
H        -0.71083984221963   11.19865848964529    5.24944280792306
H        -0.75040423485986    9.73874928112142    4.26581951947913
H         0.45215998205104   10.98896022384343    3.94210175934313
C         6.21345186109065   12.43050005896106    5.31952667614277
H         5.78950264617134   12.29617570144205    4.32627225274973
H         7.29468349997366   12.35245277203617    5.23563514137329
H         5.96568350643535   13.43057822802715    5.66827303986496
C         0.54907125574749    6.36212579746107    3.35725353108484
H         0.43919476055602    7.42760006109630    3.16221433295676
H        -0.06697944991158    6.10840492121811    4.21726904918280
H         0.17321597552860    5.81550486171372    2.49589000024151
C         5.54676027780814    5.07856408115925    3.32282730421396
C         7.25491444696110    7.10342285976826    4.73472303559996
C         5.16403688855583    5.35397890758290    6.37761858035931
C         7.22930850891953    4.61476632917030    5.20585620057567

