79
CSD_code = OWEFUS | q = 1 | S = 0 | Stoichiometry = C25H44F3O3P2PdS(1+) | MND = 4
C         7.86319864783209   -3.14679117771451    4.90524215302771
H         8.94416106057990   -3.20817037327076    4.79890203868114
H         7.50235092069186   -4.15040546163474    5.10592647752624
H         7.64284963244788   -2.52961553889393    5.77243128900633
C         8.21157281595295   -1.52942809303099    3.05094256969692
H         9.20392825439661   -1.96476486308658    2.95635486712069
H         8.27453712703405   -0.66793978965528    3.72106931851489
H         7.91581087638533   -1.19479885101891    2.05917446278528
C         7.04076139106740   -3.70055538843858    2.61548928038672
H         6.71793905319796   -3.33612120201668    1.64421555829178
H         6.32661093005629   -4.43628828859879    2.97528731065275
H         7.99181776601226   -4.21089599868330    2.47345110729285
C         7.24477262721576   -2.57210649133648    3.62526447048360
C         4.88961209492910   -3.57723068440689    5.95247369160450
H         5.51997204055317   -3.02472014264726    6.64201824970792
H         5.45022261054632   -4.40269283143940    5.52497056323140
H         4.06786419382141   -4.00288537527925    6.52620517712298
C         3.53607110884887   -3.53804022143273    3.87260589036334
H         4.19092821443676   -4.15989997116710    3.26830864324215
H         2.91129425149443   -2.93481216227983    3.22383409267064
H         2.88021643163123   -4.20236838462217    4.43246843160772
C         3.36126503631778   -1.66179221357587    5.51166514549058
H         2.85170614230430   -1.07662139282050    4.74577887562765
H         3.90810028638889   -0.99984463766959    6.20099894955987
H         2.60133906811028   -2.18693776694261    6.08761942989948
C         4.31258183966418   -2.67275978437722    4.86470369012750
C         5.04594738977453   -1.26516412793953    2.31537916105444
H         5.92189407155836   -0.89510007750613    1.77823869670390
H         4.79242342077110   -2.24351805678977    1.90282837620960
C         3.90619562401856   -0.32890664562239    2.03643020106427
C         2.70124702184738   -0.85996840246632    1.57989492078329
H         2.58580287378727   -1.93040743647232    1.50502339497491
C         1.65664592734835   -0.05647841027166    1.16575836830051
H         0.73647924380014   -0.50205227307251    0.82363519006719
C         1.81931031648297    1.31689639526607    1.15411056717112
H         1.02926297544763    1.96044773604556    0.80194687946149
C         3.01924669860030    1.85671295498503    1.57439408842540
H         3.15630212714965    2.92732002008135    1.52503824012950
C         4.06375786284306    1.05889600746031    2.04039030312809
C         5.34209636331525    1.74197201897583    2.42269179253542
H         5.31110925612370    2.75280579339603    2.01386070955239
H         6.19453330167119    1.22360058849393    1.97458856646369
C         7.31458183444587    3.05437697704927    4.07531739209408
C         8.47585140198294    2.10789326314996    3.76106355027423
H         8.31733969189143    1.57263958922634    2.82595434416450
H         8.60730118535616    1.39697600346300    4.57805912476140
H         9.39745267384766    2.67843323664264    3.66274911022134
C         7.60738806868596    3.74705976356087    5.40638546106713
H         7.59941444287203    3.03625442549121    6.22889317754751
H         6.89708026813560    4.54331468578760    5.61120628290528
H         8.59853042147427    4.19592447798425    5.36556098157808
C         7.21868185003277    4.10722170311223    2.96809789527406
H         8.06711913860152    4.78208374137971    3.06718135606933
H         6.31728612909858    4.70756407938484    3.04088888062318
H         7.27645306429936    3.66337397720044    1.97786281339053
C         4.31393364898860    2.79888306763839    5.05666331616951
C         4.53111827761235    2.79323256193521    6.57099601682336
H         5.44996570957518    3.28499883788900    6.87197485136792
H         4.55063811034756    1.76323951065947    6.94547988354839
H         3.70163657767555    3.30891619813672    7.05277556813853
C         4.08894522429966    4.21924510526082    4.54686947942405
H         3.98983812892290    4.24340983930420    3.46436692248251
H         4.88756410068908    4.89022285595360    4.84935968917930
H         3.16140222768268    4.60085542277351    4.97038417914324
C         3.07019295406805    1.94435336702954    4.79983051276142
H         3.33278936518411    0.88860820471986    4.87148570273970
H         2.63077113926272    2.13659307986977    3.82771567963567
H         2.31719471658873    2.16413695177411    5.55401275841467
C         8.93757166865610   -0.40356083788440    7.37999473502905
F         8.90790162159053   -0.38089651462196    6.01323554742933
F         9.39559501595277   -1.59219281819101    7.73857226785629
F         9.78057106996844    0.53979964985594    7.76538853114889
O         6.48725101738358   -1.17195903845396    7.15960805112931
O         6.93842904683430    1.18005555124623    7.12560218743338
O         7.05566168984160   -0.03152637296160    9.25306940887035
P         5.65533983154370   -1.60861141044237    4.03418455542170
P         5.78217045240346    1.93352530615642    4.21308689197030
S         7.15666426409588   -0.07007393229895    7.84704572241141
Pd        6.24863507365044    0.07956049269704    5.45296598174937

