67
CSD_code = OWEFED | q = 0 | S = 0 | Stoichiometry = C26H34CuN3O3 | MND = 4
C        -0.82848469624689    0.40220354590087    3.75400774653809
C        -1.82977943144079    0.20318738644423    2.71037867056554
C        -2.06489115080179   -1.13364573303373    2.09704730661153
H        -1.11109131552654   -1.66260325027000    2.04585383957089
H        -2.45624029847953   -1.01598273424028    1.08477051907373
C        -3.04189991287367   -1.95620047140694    2.94082385314665
H        -2.63625257922422   -2.10307016439170    3.93860991610485
H        -3.20638500715344   -2.93001035544535    2.48576954507089
H        -3.99803159641950   -1.44378247529629    3.02730941045231
C        -2.45400889328944    1.39062248808578    2.50928179959757
C        -3.52144446360306    1.71709304128818    1.52010377189808
H        -4.24054071549688    2.40663132356303    1.96679968256111
H        -4.05301660233548    0.80351386556794    1.25030887307788
C        -2.92362612906323    2.34566960493016    0.25861524714537
H        -2.38459370879195    3.25747220174039    0.50391085921607
H        -3.70964855585384    2.58513660243928   -0.45380379945018
H        -2.22710544322437    1.65541797333213   -0.21121594837112
C        -1.84485787705564    2.35119513035100    3.40049840726533
C        -2.13894780389644    3.67177257404995    3.50623735905501
C        -1.50734364767373    4.54640921081098    4.40693075701212
C        -1.68450779392134    5.94964880255419    4.43689339736925
C        -2.54835038838279    6.72730548158534    3.50014347560684
H        -2.80368106570662    7.68625747655614    3.95428229994359
H        -3.48103500760294    6.18800987155413    3.32114102555176
C        -1.84089027333168    6.97689534530981    2.16623373859170
H        -0.93192471743984    7.55213621309286    2.32346347829269
H        -2.48825714754184    7.53015847281968    1.48950336078268
H        -1.56869241354151    6.03390237149540    1.69799510989148
C        -0.85565762956044    6.43515470066698    5.43479922709240
C        -0.63918582013231    7.85588164543540    5.83943404003183
H        -0.61514868934662    7.93462135356921    6.92856305090954
H        -1.47082755429175    8.46548150835220    5.48272526647372
C         0.66787389320191    8.40279167780703    5.26078795870615
H         1.51357490736255    7.81002984213600    5.60101830440387
H         0.81775998155313    9.43518126832437    5.56862588848591
H         0.64408801490297    8.36558789769076    4.17442532583420
C        -0.22470505128923    5.31391388386538    6.02314992012883
C         0.57881710269635    5.35502155720445    7.17628717672185
C         1.00077620903914    4.23689116828079    7.82224212946253
C         1.65479705488122    4.13914507434562    9.10748282995756
C         2.13299296563903    5.31009673001380    9.89704755195958
H         2.28886259361017    5.00862057169865   10.93357419857677
H         1.37407041796665    6.09570880668834    9.88451252017697
C         3.44353671628320    5.85524842175137    9.32419374342297
H         4.21575209849863    5.09007222194930    9.35545595209171
H         3.78086777844570    6.71286944042235    9.90153923992288
H         3.30964666342612    6.16117943792884    8.28957075956397
C         1.73243501523270    2.82053648654425    9.41980597200839
C         2.25720381634960    2.14044971594693   10.63662697115570
H         3.06529253510574    2.72857670447372   11.07631080817577
H         2.65221623430281    1.16594275145735   10.34260513021590
C         1.14359575940069    1.93384324960010   11.66646367063034
H         0.72042196692306    2.88954705451930   11.96933542560352
H         1.53271931745804    1.42844123504557   12.54712047559589
H         0.35100233575259    1.32523812541832   11.23836604869554
C         1.18572094214059    2.06353215977892    8.29498544945189
N         0.74648024117635    2.96106653681088    7.35866827398536
N        -0.61752534040477    4.17745439865465    5.37226086039068
N        -0.86574780266879    1.71220842899950    4.14527968755961
O        -0.06865120699855   -0.47391334131173    4.19796503083994
O         1.21775313065658    1.05301229210967    5.67219686305859
H         0.80564212738421    0.29056384746495    5.10828377670090
O         1.14974918906132    0.83115072465946    8.18459865486509
Cu        0.08020189877001    2.50147174939722    5.62288311666020
H         0.81047513878355    6.32215214742943    7.58999945173844
H        -2.89580113027668    4.08857134898923    2.86250266636448
H         1.22095281488503    0.72411337648642    6.62831288020161

