115
CSD_code = OWENUB | q = 1 | S = 0 | Stoichiometry = C54H52AgN4S4(1+) | MND = 2
Ag       12.98496945158560    4.53319515166567    7.26706057552541
S        11.92595874553076    6.97553184819232    9.01149068190014
S        14.26198718494773    5.86772318275334   10.02770224550357
S        12.54863040830765    4.13599223213777    4.27076684007525
S        13.03686377575714    1.98814539783877    5.90758537023536
N        12.29738221038601    8.17268467441491    8.10903989099498
N        14.46714743854741    7.15127780619475   10.84451132845689
N        11.02036213743248    4.32684070453456    4.34474118278561
N        11.58749719578147    1.51266198867768    6.07874400437952
C        12.82423921776578    5.52301327466676    9.14951892384501
C        11.66664530925715    7.77578477865447   10.60160825716259
C        11.61299154958448    9.15255800945780   10.68732104888374
H        11.75057339569062    9.73641521148175    9.79222673773721
C        11.39938321745176    9.73782035318413   11.92403551971101
H        11.36036010153464   10.81296189329446   12.00760670462027
C        11.23980389073750    8.94557825898941   13.04909465382544
H        11.07899974060677    9.40554164685300   14.01211726896482
C        11.28724949831918    7.56378981613814   12.94495885460330
H        11.16345804678243    6.94740385831533   13.82201114929854
C        11.49761187907652    6.97090399978830   11.71353540351306
H        11.55063739991876    5.89738134834056   11.61321120650863
C        10.23815441690146    6.37659482586387    8.70329471515629
C         9.37488842910659    7.23132188193064    8.04087212558969
H         9.73489097328044    8.20118355301402    7.73271652828590
C         8.07623220400911    6.82506632471723    7.78848198126983
H         7.39645979167411    7.48442128226909    7.27128572081648
C         7.65354648280289    5.57183458158067    8.20303589525509
H         6.64163641522532    5.25334530270116    8.00415830545947
C         8.52142520415020    4.72861044447925    8.87889762663951
H         8.18568607266507    3.75750748249646    9.20917336081173
C         9.82144275963843    5.13074671267859    9.13858806525152
H        10.50743283084864    4.49110286289811    9.67503478124639
C        14.20581603981132    4.61850458759900   11.32475488134737
C        13.95206177334035    3.30316670158197   10.97126373988439
H        13.83163813251694    3.04440659193717    9.92653821649299
C        13.85505206083836    2.34317545756799   11.96272160146568
H        13.66421356123623    1.31562910731682   11.69433425650835
C        14.00149374041340    2.70383564355825   13.29400037524690
H        13.92352452115657    1.95293945155472   14.06523000915331
C        14.24355246967359    4.02451428232303   13.63747491890012
H        14.35332682341519    4.30394741344299   14.67388369994147
C        14.34817624928041    4.98965480891929   12.64988938938902
H        14.53281696986441    6.02798570087577   12.87380808395241
C        15.80811715096227    5.37893384115066    9.15372693759045
C        15.98915027042894    5.77623055883033    7.83948779944728
H        15.19805741510849    6.30843834345415    7.32009998755021
C        17.20353368356019    5.53459801567809    7.21536511261616
H        17.35654084513129    5.84853602491796    6.19388941223020
C        18.22788982442953    4.91250329826092    7.91103730126976
H        19.17395282601517    4.72705019842701    7.42582276833083
C        18.04772827258521    4.54900213314306    9.23619551449352
H        18.85393504429098    4.08717614862190    9.78589462248902
C        16.83762675773209    4.79119611635231    9.86646550202205
H        16.69368563304803    4.52721256939558   10.90274899323853
C        12.71521977607706    8.03221051841066    6.75065112012281
H        13.00572441118366    6.98608945185384    6.49305154798936
H        13.57795755739108    8.67814349575162    6.57557056150452
H        11.91576586902276    8.33169174918615    6.06574476281011
C        14.89428556688669    8.40442300481332   10.28846851690524
H        15.90843914137567    8.32980001440057    9.88021263733062
H        14.89986374888236    9.11985922290103   11.10947220692550
H        14.22346517459154    8.77275232379739    9.50759095722877
C        13.60278375757308    3.55947579951290    5.50596102271547
C        12.66557684211604    3.09451835029262    2.81028270131626
C        11.53993383809249    2.46172911704540    2.32043560868767
H        10.59581331333407    2.63588823957542    2.80978039055239
C        11.66086102773593    1.63602273486371    1.21631427697810
H        10.78891295914446    1.13761966132055    0.82198574064070
C        12.89730952724076    1.45319983793497    0.61858564452508
H        12.98843279640214    0.81098957074118   -0.24381290699092
C        14.01874527284187    2.09528749663389    1.11932892943608
H        14.97982353853311    1.95587077169896    0.64920040101845
C        13.90709415226985    2.91896978211147    2.22500783728692
H        14.76962704573809    3.42711636557492    2.62999627150433
C        13.38800363288366    5.63758271770957    3.68693136820476
C        12.67708873781899    6.43660090035574    2.80803737245975
H        11.69411135761259    6.12052053833467    2.49211959947265
C        13.24018142976037    7.61671489919890    2.35542952161775
H        12.69492804068213    8.24438263369426    1.66770744804643
C        14.50322341010375    7.98904212968965    2.78872342494032
H        14.94094030940582    8.91114922374659    2.43836903882279
C        15.20797127634032    7.18064188155009    3.66630626637757
H        16.19404129464683    7.47320896676244    3.99446015679604
C        14.65222965592549    5.99536815524653    4.11941979430819
H        15.18753498207376    5.34472959742576    4.79588005325113
C        13.61963997886196    0.79567286928738    4.68388104446026
C        14.96191159349356    0.81515831891555    4.34791470782689
H        15.62233271505358    1.52469726917863    4.82344166585800
C        15.43655561137809   -0.08039812924184    3.40671816945761
H        16.48310584433832   -0.07919148092821    3.14343082047066
C        14.56697128000857   -0.97626166303786    2.80508865821506
H        14.93878914796329   -1.67337107598288    2.07000391613720
C        13.22429033147530   -0.98227020068705    3.14584879267897
H        12.54919310544020   -1.68139957011171    2.67715896381105
C        12.74450498583132   -0.09388470875227    4.09265862214763
H        11.70854115127550   -0.07288588883785    4.38856461275739
C        14.10921029684770    1.46599956627927    7.28949891736354
C        15.31561511419024    2.07767324285029    7.58766089769239
H        15.66722203049400    2.91288027795379    6.99770560410579
C        16.07682219334146    1.58743878284853    8.63723223088328
H        17.02402663800886    2.04947601372420    8.86779173617300
C        15.62905113203479    0.50732162736762    9.38083056727907
H        16.22803454673054    0.13248198053258   10.19652513856672
C        14.42023054788462   -0.09781962667413    9.07475870583007
H        14.07442096144774   -0.94523496584420    9.64684657231030
C        13.66011168016655    0.37977551761503    8.02191725006691
H        12.72054863026857   -0.07708314685812    7.74928298484610
C        10.37505911349596    5.18914901442543    5.27568214324918
H        10.84982221762647    5.17773510216921    6.28430560228523
H         9.34346186051434    4.85769082015541    5.39036384417341
H        10.36990745352335    6.22811115327575    4.92316268781422
C        10.63159890179271    2.11451651246669    6.95143247738037
H        11.04318585297213    2.97244589476300    7.52776833507868
H        10.28119558262028    1.36903164235754    7.67018890104062
H         9.77691261694550    2.47116801362872    6.37216307936872

