67
CSD_code = OWEPOW | q = 1 | S = 0 | Stoichiometry = C30H32MoO3P(1+) | MND = 9
C         5.90128486915279    8.19135856885048    3.94923852644833
C         9.01066665574137    8.72551055582621    3.92788137305541
C         7.41539010822793    8.62575080606914    2.11628752060190
C         6.65123841725274    9.45589473822803    7.63027474094522
C         7.98176017740810    9.68198962828831    7.60385614295731
C         7.73140273585174    6.95766832831541    6.40290369874678
H         7.81099268542519    6.52168939360766    5.39517356169441
C         6.55233864887021    6.32890802275326    7.14016927544387
H         5.62876955309072    6.44896077420328    6.57583870543605
H         6.42535601565750    6.78580227146777    8.12097093758128
H         6.72809776117534    5.26499814247003    7.28183942329036
C         9.04216670176342    6.74993331611282    7.15549388020238
H         9.88257189071559    7.16251493434475    6.59940366245070
H         9.22083323405605    5.68724367869657    7.30251697555407
H         9.00236587869635    7.22620841320287    8.13450772007210
C         5.78283541225617   11.36140879920518    3.93798607461992
C         6.22909309635909   11.21583686182637    2.59701981445886
C         7.65425688292949   11.46044420370110    2.57332541030482
C         8.06948752302353   11.75368823679363    3.90034996427428
C         6.91388193936217   11.71094406473299    4.74559706727622
C         4.35154528467388   11.44628519011035    4.37681636349591
H         3.71541702688085   10.78794400305687    3.78788737710941
H         3.99235953379292   12.46872801865833    4.24264487274787
H         4.23862781360306   11.18515466024020    5.42810796696545
C         5.34270771143713   11.13069043397128    1.39352144378164
H         5.86034640565183   10.69124457264807    0.54294676964303
H         5.02206534212790   12.13518104063624    1.10972185827771
H         4.45201508441552   10.53805000371987    1.59610310548533
C         8.47772626841623   11.67419285115827    1.34153897954432
H         8.10692199898082   11.08837289392972    0.50265759960346
H         9.52097141653639   11.41143877521895    1.50871133683594
H         8.43650722281386   12.72829897830089    1.05958075633872
C         9.40497581421019   12.30984789631678    4.29470583472173
H        10.20284644123759   11.90476558557294    3.67483477220502
H         9.63617305617166   12.09560423219336    5.33737421458754
H         9.39742453180195   13.39429935830585    4.16642627603230
C         6.82970338905045   12.33552624840151    6.10218091168089
H         6.01234031001651   11.92518976281727    6.69232581719323
H         6.64401032550732   13.40450079353661    5.97139428123875
H         7.75629946694094   12.22459443836285    6.66235363437201
C         5.37273011995987    9.64258743462075    8.23015273938308
C         5.21934489449189   10.22336548554561    9.49280749259471
H         6.09033779116526   10.52805625847231   10.05139691146067
C         3.95550536267232   10.39151547303402   10.02291995607834
H         3.84124915996025   10.83423068054227   11.00028138731947
C         2.83562342868745    9.99356793546180    9.30752578272029
H         1.85192254612201   10.12756423278822    9.72936941937991
C         2.97840223747403    9.41779045047186    8.05305126339340
H         2.10719398618097    9.10509708868290    7.49827235165015
C         4.23732376316281    9.23772693142926    7.51921762653569
H         4.36946833155512    8.78129175265732    6.54498906258612
C         9.14577829629850   10.29851169453814    8.14638810805727
C        10.33103152909687   10.25335785160708    7.40356548247140
H        10.32859505970980    9.73535783607382    6.45156933029962
C        11.47633824476452   10.85752071003491    7.87851275254675
H        12.38630999863602   10.81903089738201    7.29969564841172
C        11.45705782883060   11.50813980749929    9.10405508120025
H        12.35387661707013   11.97540026258239    9.47955080492235
C        10.28792751549374   11.55547723663910    9.84920202339251
H        10.27699294833685   12.06017268496265   10.80287482832174
C         9.13479964368044   10.95909910886387    9.37879881643363
H         8.22608952650004   10.99558628659756    9.95874665520893
Mo        7.26128544696117    9.58644837485961    3.80666708865234
O         5.06316637557732    7.41789643015537    3.99221261947903
O        10.05922552690186    8.27568693018568    3.95991448499573
O         7.50400757405438    8.07234518353819    1.12541416869906
P         7.42084161537436    8.78481150492220    6.14547946653671

