32
CSD_code = OWETUG | q = 0 | S = 0 | Stoichiometry = C14H13BrN2PdS | MND = 4
Pd        4.53810559581352    0.32654931903350    4.20978488349567
Br        4.34281791428346    2.07237238955140    2.67667339257404
S         3.41089362805490    1.53613713491196    6.10528182448535
N         5.34683570765619   -2.19738196779469    5.16576347041143
N         4.77845867756948   -1.10338091399250    5.51955783758422
C         6.90237903897904   -2.10163289595638   -0.24685604619696
H         7.33050358559703   -3.04940685020371   -0.56306307402586
H         7.64001531734379   -1.31451139673683   -0.40037001812468
H         6.04519549777759   -1.87306348473354   -0.87875939019284
C         6.48906752355495   -2.14492322506831    1.18853428948535
C         5.87610236586037   -1.02708784157037    1.76000788079374
H         5.71463901173062   -0.15179785439370    1.14270291950000
C         5.48131987308380   -1.02754809142939    3.08236970733500
C         5.71344234511746   -2.20215329715481    3.86128692438076
C         6.32924816426823   -3.32306804987890    3.28730064141054
H         6.49202103771691   -4.19877584125534    3.89647227818861
C         6.70767582011230   -3.28415805772220    1.96617111548589
H         7.18079874023864   -4.14661048343724    1.51907161052925
C         4.42275953581865   -0.95719330207537    6.85237647064242
C         3.79504656191595    0.22393382347344    7.27453495131411
C         3.44036747915874    0.39723022061968    8.60005133329790
H         2.94643139024059    1.31014938949753    8.89694415457084
C         3.71455025020373   -0.59422831605908    9.52701697994310
H         3.43824374121280   -0.45398213193178   10.56043136271681
C         4.33797711132456   -1.76639265221066    9.12164997111941
H         4.54788096894119   -2.54149342218711    9.84289085826432
C         4.69051116245139   -1.95117001780323    7.80170783178279
H         5.17438156567049   -2.85495090449333    7.46542665248994
C         4.94946999609771    2.51912411462109    6.27362511534865
H         5.07165851177842    2.80986919481182    7.31355175979434
H         4.81470911475800    3.39870313452868    5.64713551156962
H         5.81809276567055    1.94114227703871    5.92642680002870

