32
CSD_code = OWEVUI | q = 0 | S = 0 | Stoichiometry = C14H13IN2PdS | MND = 4
Pd        4.50470157679400    0.16978513878687    4.23738586707678
I         4.26657309238183    2.08068933579366    2.58857797138079
S         3.35223350133319    1.35521448691445    6.12571308588868
N         4.74090851808735   -1.26841238736463    5.55209717060632
C         3.69690131721834    0.03165580302264    7.29175192832998
N         5.32240331747210   -2.35324738174330    5.20167953964896
C         5.48147720987027   -1.17774435858376    3.12220325066448
C         5.71300131621799   -2.35044663834477    3.90501300536766
C         5.89783424872091   -1.17904287970320    1.80647971093115
H         5.73994185071256   -0.31010370607226    1.18038405286771
C         4.34624364904917   -1.13944951102494    6.87600965313225
C         3.29633837576450    0.18676908995633    8.60629513644916
H         2.78642710430835    1.09276962835675    8.89754565426504
C         4.59142199260295   -2.14325604162491    7.82103721075125
H         5.09298152086788   -3.03982110714500    7.49108569385465
C         4.89651164365228    2.31912999301567    6.34509047273563
H         5.02479824417237    2.54284572189760    7.40087779213448
H         4.76463878116151    3.23813746579129    5.77767823485322
H         5.76173401752617    1.75962884999682    5.95788402742330
C         4.19340724357013   -1.97694637748884    9.13047827696280
H         4.38521593222408   -2.75926542776871    9.84890782689122
C         3.54668800878792   -0.81491517004092    9.52893749150792
H         3.23426431346278   -0.69028542732010   10.55401640784017
C         6.34868892202134   -3.46717078989350    3.34374080920661
H         6.50905708161870   -4.33921274765957    3.95888770781140
C         6.74822547868802   -3.42848953476704    2.02942253317764
H         7.23659404546943   -4.28713794137612    1.59170467712573
C         6.53056082784548   -2.29209120999051    1.24706328401842
C         6.95552871979447   -2.25062659881806   -0.18444718928459
H         7.56586019430906   -1.36871939912436   -0.37294015009536
H         6.08022429255831   -2.18545688224762   -0.83061520761569
H         7.52201366173597   -3.13838399543027   -0.45394592590704

