29
CSD_code = OWEVOC | q = 0 | S = 0 | Stoichiometry = C13H10ClIN2PdS | MND = 4
Pd        3.43831683358666    0.71011461325652    8.74823237778204
I         4.01188645527925   -1.38454178045362   10.05306569864214
S         2.86880305606167   -0.49521366114349    6.64381788384395
Cl        4.96298188663632    3.15129778200404   13.78811386679239
C         3.75785981219364    2.11895902856019   10.13921026528571
C         4.12647156708600    4.49085221100273   11.61213904879757
H         4.28004491043789    5.38007781559871   12.20265561586108
C         1.35873841746549    2.04440828030218    3.88436733129894
H         0.95587609922124    1.96632246062838    2.88668914925693
N         2.92595266607859    2.31167275776414    7.74607277436876
C         3.48371147478697    3.40181092313156    9.57211388245817
C         4.39415908991484    3.23861908723039   12.16597733492984
C         3.67163997761053    4.57411092662352   10.31878386172106
H         3.45754728965493    5.52640071808913    9.85927306022204
C         4.21495676761435    2.06280424242365   11.44354139422160
H         4.43687176382294    1.11578645958974   11.91651784462801
N         3.02073818415569    3.46055867011798    8.29950158510836
C         1.96505274458728    3.38862613241356    5.78181623206177
H         2.04423233378187    4.34083824758782    6.28295974596552
C         1.79462898106947    0.90589630449485    4.54152631293548
H         1.74183296734094   -0.06194994238605    4.06614237159275
C         2.40889853489276    2.24671654683461    6.45971116487804
C         1.44703652141862    3.28146391625964    4.50842806621541
H         1.11058019860151    4.16854030184648    3.99401092536735
C         2.30991782783629    1.00240553295102    5.82113835615054
C         1.28350397891540   -0.98357854204127    7.42484067763112
H         1.00042023163222   -0.26611829829523    8.20936882993548
H         1.44994512175407   -1.96585640223067    7.86227046349135
H         0.51559430656287   -1.03792433216044    6.65781387855621

