35
CSD_code = OWEWOD | q = 0 | S = 0 | Stoichiometry = C15H15IN2PdS | MND = 4
I        -7.18844362248294    6.41725813139962   14.50998599225615
Pd       -6.73871540480035    8.58539948993657   13.25954226599393
S        -6.94963707464246   10.05699119996772   15.25198548826634
N        -6.11899935994861   10.23373616324033   11.05974758861103
N        -6.42804914839696   10.26317500159433   12.29952142616612
C        -6.03490588482447    8.97596470533061   10.56342375565873
C        -6.33101649888793    7.87699135956014   11.42639190010766
C        -6.24487251461603    6.60030721787585   10.90542022166883
H        -6.45894736641559    5.74139881619445   11.52850239587885
C        -5.88923884020933    6.38182663995083    9.57378832266594
C        -5.60631684523847    7.47245153799834    8.74593222729983
H        -5.32814440643079    7.29574087494627    7.71686689617471
C        -5.67572704327737    8.75742013090353    9.22509486503701
H        -5.45479625042987    9.60848692657241    8.59927065657243
C        -6.59964361321020   11.49872267691851   12.90448840981309
C        -6.89256194852384   11.55828832205317   14.27515903847959
C        -7.10232743216303   12.77611915360515   14.89741845753629
H        -7.31209893978096   12.80003830203565   15.95639698874368
C        -7.03602298428527   13.94817406296281   14.16418450415694
H        -7.20408424784027   14.89576420755794   14.65189147944223
C        -6.74205434351880   13.90194918659377   12.80765144652842
H        -6.68313770219838   14.81733324150774   12.23889494021221
C        -6.52376019460789   12.69452749491692   12.17956909437958
H        -6.29746844600055   12.63678029571982   11.12610311087370
C        -8.76252846979117    9.91242024180279   15.49248860306045
H        -8.88139588736825    9.00565920457730   16.08781393289708
H        -9.08721987356697   10.77640442715706   16.07358959663059
C        -9.51163920593536    9.80712033272194   14.17529119443512
H        -9.43068258891835   10.73425786751090   13.60395829864257
H       -10.56594429786573    9.61525543033970   14.36765542847461
H        -9.11894017069637    8.96724165993861   13.56642221868202
C        -5.78698111162448    4.98784507703770    9.04599314235465
H        -6.45984394378426    4.31986497100465    9.57806705706484
H        -4.76990540797041    4.61810415920424    9.18477380406517
H        -6.01334892974839    4.95548148936171    7.98251525117072

