50
CSD_code = OWEWEU | q = 0 | S = 0 | Stoichiometry = C23H25ClTi | MND = 14
Ti        6.06690510195941    9.19015563541959    6.89001145620209
Cl        5.10276259887166   11.20820289204480    7.36730500325023
C         7.17403722262197    8.28387468601377    5.17725286429292
C         7.45073184197054    9.66623339520271    4.93455946641960
C         6.24573677597375   10.37949387212454    4.71334266099712
C         5.18280176578637    9.45190744504215    4.85487953406465
C         3.80754856036922    9.46892888343379    5.27768407389847
C         3.60831068135875    8.31178231530647    6.01208427498350
C         4.81343636258128    7.49739229686132    6.00985620227657
C         5.74012471053334    8.13883539751310    5.12334462707772
C         8.17305856700124    7.17510540469057    5.01787019551151
H         8.49754253186881    7.13145995413371    3.97453896200982
H         7.72572741706150    6.21433383316254    5.26439556459718
H         9.05898809196850    7.32261123855749    5.63346471195716
C         8.81602283643925   10.26352899939645    4.75682592453831
H         8.93574527481608   10.61661055812161    3.73043175957875
H         9.59354789292991    9.53132119510816    4.95774438342690
H         8.95850547630094   11.11311336044583    5.42723941888386
C         6.12363265638158   11.82517895210455    4.35807157211047
H         5.63031858604342   12.37192150728145    5.16428109666716
H         5.51805671683126   11.93609842759400    3.45802482307867
H         7.10112888961151   12.26936854946795    4.18463794744730
C         2.84687488010329   10.58333491293230    5.03226307467234
H         1.81729204866401   10.23656822861052    5.09075645680835
H         3.01815001873346   11.01650194930223    4.04847219702976
H         2.99200147080403   11.36700869823762    5.77913777717596
C         2.34932583032186    7.89668827492126    6.70896639525885
H         1.59711658374948    8.67811281284360    6.64699382283487
H         2.54570742866700    7.69843271041831    7.76449680666635
H         1.94631891128292    6.98620689328303    6.26170001896075
C         4.79559583543949    6.03534420668089    6.35664584180279
H         4.16541861468148    5.83900391850562    7.22270656653174
H         5.79716838620478    5.65610873934989    6.55449394153770
H         4.38541130545424    5.46974579094665    5.51543143098181
C         8.07197647197122    8.86788056342519    8.15774753677418
C         7.34856003299928    7.64256741133221    8.03454741537126
H         7.76842251516519    6.70146908991639    7.71201301416490
C         6.11575382286937    7.79633375031390    8.70367575218274
H         5.41370088797397    7.00089445051481    8.92278288865169
C         5.99716702068805    9.12354043453744    9.15679821497306
H         5.20169765285201    9.51760697249148    9.77924703925910
C         7.22530024289126    9.79742495333247    8.85800848309752
C         7.69765077299328   11.08644391323275    9.16068710628190
H         7.06422889268720   11.78410732186156    9.69174772428658
C         8.97484540324989   11.42716406639315    8.79139685247048
H         9.35689833261242   12.41043674756024    9.02378232094623
C         9.81584909441408   10.50920948144904    8.13924651178425
H        10.82681147517376   10.80658316355479    7.89922376335520
C         9.38528351667575    9.24387229580689    7.82479603175834
H        10.06030199139769    8.53114944921740    7.36768849111123

