56
CSD_code = OWEWOE | q = 0 | S = 0 | Stoichiometry = C23H31ClZr | MND = 14
C        14.51258110970911    2.44080670548997    5.57845435837528
C        15.35468462279297    3.12134689673898    4.62366574083278
C        16.06687099858621    2.12278185721545    3.89963898940671
C        15.65022488809292    0.82457054092220    4.31589657848459
C        14.72013051579071    1.00779907385164    5.39125761242190
C        13.54762671854933    0.31469444928776    5.85433448108703
C        12.58874405312548    1.28845698673512    6.16108389180529
C        13.12455853783253    2.61226914549133    5.96178533771318
C        15.68768891711261    4.58821482064445    4.62186719445798
H        16.51966733991718    4.79028404905861    5.30223530027887
H        14.84023999972792    5.18668067982785    4.95272746530468
H        15.98685829414208    4.93179137160322    3.63171733873365
C        17.25507167270657    2.41244728839331    3.02168678516573
H        18.14292588637209    2.54752360403086    3.64355198477754
H        17.11839730919923    3.32892845372027    2.44718364172903
H        17.45574428191930    1.59501187710872    2.33180943916303
C        16.17866206103293   -0.49606522230691    3.82872036720571
H        16.75648364782142   -0.37746137164226    2.91314740030840
H        15.35744046091984   -1.18926622567015    3.63137059655597
H        16.82933099650555   -0.95110896955328    4.57912175912537
C        13.38822967612702   -1.16550148946968    6.03528105773559
H        13.00521227820560   -1.38766186921116    7.03273494694728
H        14.34762281601351   -1.66340548733948    5.91633759462132
H        12.69102481524728   -1.58741451115683    5.30761720587102
C        11.22240821558803    1.00741658382140    6.72069773957283
H        10.85519603607608    0.04438451689446    6.36761989415866
H        10.51296938000895    1.78125592900663    6.42512392583275
H        11.25136578249236    0.97858824113829    7.81235349360231
C        12.49851386778245    3.84583683577015    6.56268799278860
H        11.49918555222603    4.03484238417062    6.16359106253169
H        13.11840039447847    4.72219728975967    6.38259718711398
H        12.40010364029854    3.72992327784343    7.64563278553204
C        12.79821598365287    2.72642950415230    1.50219333961880
C        11.57422236106998    2.38792828467224    2.13117013299104
H        10.85953820265371    1.65340091091943    1.78465619547312
C        11.38204026510857    3.24802262922923    3.23349819324514
H        10.48307197992519    3.30138748605850    3.83838066937044
C        12.47478656016793    4.14279331902458    3.28298278614964
H        12.54988960089832    5.01609166937491    3.91538563242363
C        13.35544171832222    3.81552701682064    2.22632868694533
H        14.21507219114454    4.40391532002965    1.92845826189520
C        13.42638111799242    2.10111672281423    0.27196597894314
C        13.63093900276085    3.17609893474718   -0.80638639732855
H        12.67730760298919    3.62517444206877   -1.07331513897313
H        14.06747402167741    2.73588443284396   -1.70029849048589
H        14.29192809873770    3.96465854343861   -0.45507764697440
C        14.79148492782583    1.51338901576910    0.67849720418609
H        15.46185162141860    2.30991738958944    1.00567769576146
H        15.25110814443706    1.01176519472731   -0.17281014348204
H        14.66173098263520    0.77704325689180    1.48542542895671
C        12.54766364308704    0.98417606747120   -0.29765953062312
H        12.40680923026662    0.19486758519842    0.43735238024678
H        13.02030500118580    0.55265826317584   -1.17761895883388
H        11.57583584709426    1.37403939196135   -0.59160942659288
Cl       12.79808701615763   -0.28762029267634    2.96900561472157
Zr       13.43525011237863    1.88056719951775    3.70356638312352

