34
CSD_code = OWEWUJ | q = 1 | S = 0 | Stoichiometry = C15H14N3PdS(1+) | MND = 4
Pd        9.53640061825081    1.70442364355069    0.37239893883173
S         8.45557086111523    1.23221998940266    2.55659388457834
N         7.55159706959052    2.01899183359437   -1.56112774965354
N         7.73836869227001    1.77571296222382   -0.33267090817213
N        11.40095637796989    1.57676799141527    0.98443459169803
C         8.69383341541095    2.24383331245532   -2.26359528638476
C         9.93180393895318    2.19098482602582   -1.55727256295422
C        11.09232674265418    2.42882300568368   -2.26573062725194
H        12.05538415803944    2.39932540451785   -1.77099247969764
C        11.03975865406107    2.71224011961601   -3.63102270605501
H        11.95850205826534    2.89569721391742   -4.16772181648445
C         9.82834927835503    2.75916984883928   -4.30910067878093
H         9.81330716193640    2.97820000891743   -5.36521481352003
C         8.64817067309762    2.52715813280918   -3.63481791996606
H         7.69298172837629    2.55676552406946   -4.13414489327526
C         6.62490039152513    1.54682464676306    0.47037455360940
C         6.80566578381655    1.27571389995614    1.83534611077605
C         5.71850412722228    1.03497632853148    2.65476127453448
H         5.87993871310648    0.81523324349101    3.69885787398022
C         4.43596446747104    1.07221141194833    2.12882823933715
H         3.59008286482349    0.88275160698607    2.77023528928543
C         4.24402208530510    1.34828689517093    0.78166859138649
H         3.24562563601006    1.37432443830101    0.37458667872657
C         5.32333945976339    1.58493744952902   -0.04498608275033
H         5.19452233746040    1.79637614826480   -1.09488930348364
C         8.63263370479306    3.02869752480065    2.91380583774414
H         8.69004622779713    3.61405602410660    1.98302664201218
H         9.54859304084414    3.14207311898998    3.48956047376283
H         7.78362041342300    3.34957931235793    3.51127714922798
C        13.83720668347261    1.04921018251335    1.61081447931079
H        14.11760817293302    0.06770445252234    1.22612602928236
H        13.94783247716474    1.05256604855635    2.69585370511141
H        14.49627367886855    1.80389326663051    1.17973177604889
C        12.49000830593387    1.32987018356454    1.25890570919451

