29
CSD_code = OWEWAP | q = 0 | S = 0 | Stoichiometry = C13H11ClN2PdS | MND = 4
Pd       20.29041522834252    1.87225970161578   13.14444828239368
S        18.29947996477985    3.15522163285336   14.02195665256273
Cl       21.66309815803656    3.58591122697193   13.15980380757151
N        19.07649902139602    0.37726354148087   13.06769654552443
N        19.49580105929861   -0.77121197574894   12.67567765222961
C        21.52842399332769    0.46819431152334   12.44240216459161
C        17.21674284188336    1.73249345647820   13.79583275436556
C        17.72228313246009    0.50021077090898   13.35563934996905
C        20.81796021356742   -0.76538464562519   12.35589565421018
C        16.83586252324761   -0.57270722554850   13.20379627851701
H        17.23705062235624   -1.51429337047038   12.86296175745024
C        21.45874102318449   -1.93652290165000   11.92911560590658
H        20.89279864800731   -2.85369523173711   11.87609310564814
C        15.49562056789675   -0.41673697338461   13.48880897741547
H        14.82419871884492   -1.25339154313187   13.36999647862624
C        15.87173382640970    1.87673547395896   14.08494488724574
H        15.51047085362956    2.83140150331103   14.43569441485843
C        15.00773976435132    0.80562395150127   13.92916717799071
H        13.95930964386394    0.92409448403920   14.15436605132865
C        18.17987013713686    3.86435337254872   12.33433128563593
H        18.55802830254617    3.15198782977239   11.58650476646263
H        18.80233408188429    4.75686239480969   12.34274718371282
H        17.14424457845876    4.12509089149053   12.13190482170740
C        22.86853838326247    0.47912734491489   12.09431967538402
H        23.43433590712174    1.40025419461721   12.14986601170600
C        22.79270886692079   -1.88788743897450   11.59247012432766
H        23.29963083936056   -2.78342657299820   11.26453685408851
C        23.49371297245304   -0.68866246046347   11.67381255774548
H        24.54066612597107   -0.66476574306400   11.40810912082394

