53
CSD_code = OWEXAR | q = 0 | S = 0 | Stoichiometry = C22H29ClZr | MND = 14
C         7.55679970681678    0.29180119857461    2.72763896352541
C         8.31061626094907    0.01353825494642    1.55256562568494
C         7.62843946921701    0.50146702660196    0.40204392211470
C         6.39652709335843    1.08398158738053    0.85236987989489
C         5.64370945234471    2.24998008699607    0.46532274454791
C         5.26710442767874    2.91271653057015    1.64619385259002
C         5.72237457135167    2.18458374989176    2.80270660533481
C         6.35612095413874    0.97928637161578    2.30873989209658
C         7.80261921213392   -0.27240194052728    4.10013837042340
H         7.71083956353144    0.48811438748792    4.87795857472495
H         8.79121691066336   -0.72197987885929    4.17294488082991
H         7.07003552198750   -1.05350084928072    4.31722186214115
C         9.58737529404466   -0.78039593977143    1.48608251749451
H         9.37365379941230   -1.83241061821991    1.28481897222131
H        10.14276461191011   -0.72546433359277    2.42237504427070
H        10.22553815981518   -0.41125013258589    0.68204594557489
C         8.08501239165383    0.32209830496567   -1.01738601003047
H         9.12072979398794    0.64923740403284   -1.14068329745746
H         7.46376887419777    0.90791570309462   -1.69128577197218
H         8.02519324249166   -0.72773430480384   -1.31693257662429
C         5.26553734851883    2.65504761893424   -0.92927754139299
H         4.32980478977390    3.21314586075954   -0.92532976228572
H         5.13426478178572    1.77091945025405   -1.55154982242847
H         6.03333148583249    3.28299776564622   -1.38918725569893
C         4.39053728882011    4.13606922750911    1.69242937059379
H         4.73266995447142    4.88673716160802    0.97718249784303
H         4.38324320806971    4.57574153982298    2.68819437372928
H         3.36158952259520    3.87583366788305    1.43443738959953
C         5.19212558200749    2.39760304960459    4.19809776365653
H         5.35414626430967    3.41891268805082    4.54810532765746
H         5.66671955735667    1.70914612306115    4.89500036711648
H         4.11537452214401    2.20786112970058    4.22960384703487
C        10.12161982372024    3.20456730122216    2.46685056649133
C         9.39911699610039    4.42555175282653    2.35628609792681
C         8.36713913849638    4.41571565624087    3.32865371566183
C         8.47919397231158    3.21269800755351    4.07374263788987
H         7.94286076899003    2.98922941779220    4.98647495375692
C         9.56594861550784    2.46916247146885    3.54388098768573
H         9.99441766432904    1.57286872873178    3.97546589899029
C        11.28969453979107    2.77739759215991    1.61830864311718
H        11.62525385116096    1.78188993813239    1.91154442407148
H        12.12808569133164    3.46698785998032    1.73367798523890
H        11.01379589230002    2.76054185888550    0.55839192708862
C         9.74767440292710    5.60081413343394    1.48755717152052
H         8.85388930125321    6.05343779239079    1.05575942298234
H        10.40395883399613    5.30238321573210    0.67335869540614
H        10.25994245413522    6.36227829931194    2.08178075665613
C         7.40330983231419    5.54621700638977    3.57508892604293
H         7.94737044330414    6.46795045370155    3.79075864135042
H         6.76356642954018    5.32713885078013    4.42942291187790
H         6.77357746894085    5.73110539233262    2.69764326933837
Cl        8.39074524475170    3.48346783852363   -0.31517997647093
Zr        7.87125501742636    2.54619854104620    1.79754579056710

