29
CSD_code = OWEXEU | q = 0 | S = 0 | Stoichiometry = C13H11IN2PdS | MND = 4
I         9.75310349214636   10.07201182137731    2.81750181532078
Pd        8.59160064687111    7.92948377723661    2.12682071879874
S        10.11069288640160    6.41949854973153    3.44163788657465
N         6.73981646039198    6.28982697431347    0.77445700509260
N         7.75571279616387    6.25518306868505    1.54976530088853
C         6.36783891889974    7.55262947967669    0.44299338614433
C         7.14382890354639    8.64293127795031    0.93776025327970
C         6.76492557266568    9.92657686821812    0.58312424102207
H         7.32434280179638   10.78266097250056    0.93641338560012
C         5.65939970040030   10.13263336374485   -0.23307776670685
H         5.37884616070245   11.14193216985705   -0.49695969633032
C         4.90884167007235    9.06322998069747   -0.71234485776210
H         4.05247565489998    9.24826679518306   -1.34354315982211
C         5.25511390957636    7.77376035485276   -0.38118719208210
H         4.69175562861951    6.92378905049232   -0.73437039843801
C         8.25482497258304    5.01007271682941    1.91007156531581
C         9.35476015601257    4.93084382727629    2.77564464000913
C         9.87173193715922    3.70301070321727    3.14699025304716
H        10.71062903538593    3.66866516014629    3.82571396576878
C         9.31010290294533    2.53757157816930    2.65321337507089
H         9.71612647611076    1.58137866536233    2.94424872960717
C         8.22400049753961    2.60355962515144    1.79109684247797
H         7.78405758902262    1.69503695671959    1.40917095460295
C         7.69803691316081    3.82271978355657    1.41959100484975
H         6.85290162178694    3.89536237930031    0.75269602201585
C        11.37382590315326    6.68725222275212    2.14011822613932
H        11.95978240946160    5.77911744619882    2.02619544894744
H        12.00419335645722    7.50153994548166    2.49132229598372
H        10.89733102606705    6.96535448532160    1.18793575458489

