50
CSD_code = OWEXIZ | q = 0 | S = 0 | Stoichiometry = C21H28Zr | MND = 14
C         0.00652717251289    2.38864058202925    5.31383485152073
C         0.50860942828256    1.23162644461925    5.96791550275410
C         0.07166552536097    0.05407095214146    5.29993887388032
C        -0.77582322823150    0.47670046184974    4.20289495958775
C        -0.84132244961930    0.07832745974810    2.80812648295087
C        -1.07106028528328    1.27378009481893    2.04665209677789
C        -1.05635066152863    2.40359596822577    2.88343474925643
C        -0.80668603170169    1.93383754455725    4.22167288679467
C         0.07826346474881    3.78840360507689    5.86361139734881
H        -0.35055652141083    4.49949788643667    5.16052195453836
H         1.10433756324577    4.08913917039478    6.08741757077368
H        -0.49133892928561    3.86093308326018    6.79439922115201
C         1.24451647092235    1.22352047154462    7.28036058775732
H         0.55784021027159    0.98641818170346    8.09627623185925
H         1.68868783029687    2.19474722154957    7.49069609042567
H         2.03202054872936    0.46759398995007    7.28401890470977
C         0.20794269758882   -1.32988442741740    5.87664808024654
H         1.25411698343300   -1.59148705252741    6.05084596597009
H        -0.23082602290262   -2.07092377673872    5.21234335380492
H        -0.31186615077018   -1.39425827370106    6.83670951371331
C        -1.05855286062484   -1.30626299502341    2.25230759675358
H        -2.07864552856695   -1.41599392201459    1.87277246038710
H        -0.90979998675138   -2.05888667595680    3.02381037188298
H        -0.37295044676322   -1.51380535892880    1.42574262145231
C        -1.35214283489531    1.24003829429255    0.56931661829277
H        -0.58052642651462    0.66865721493395    0.04613840254357
H        -1.38484199572373    2.24059937672341    0.14310536604558
H        -2.31229573968288    0.75878424499303    0.37311025836063
C        -1.38522246935939    3.82224311312942    2.50982136294203
H        -1.60741514129383    3.90879053710025    1.44791055881346
H        -0.57122811407053    4.51249811730566    2.74353059274122
H        -2.26712387687868    4.15572721268060    3.06086937594875
C         3.18572720729313    2.61646160910333    3.63224442059544
C         3.53295125334507    1.69227400880402    2.62390639175777
H         4.37867151729576    1.01698563140114    2.65506441311860
C         2.68560251491607    1.90792309165650    1.50894414090512
H         2.77752292834795    1.42541896636111    0.54256419296829
C         1.83252050081979    2.98399464730586    1.81771169766480
H         1.16515606400022    3.47547932081765    1.12100842722804
C         2.13269870332071    3.41932557145837    3.13139778073494
H         1.74913082706093    4.31415862497470    3.60541991064481
C         3.85868455423146    2.74228858604323    4.97521437535379
H         3.69715464605033    1.84752661982232    5.58862116537724
H         3.47856483105469    3.60904972858131    5.51544070638397
H         4.93583252129982    2.87014285058662    4.85192762463749
C         2.17728018490374   -0.86741679623887    3.25759353803409
H         3.01610776190381   -0.94133807243324    3.97559576112195
H         2.60803603629383   -1.04244508646567    2.25662487802379
H         1.52912750393975   -1.72914544018869    3.45764554417297
Zr        1.21217825038813    1.14044739165501    3.41712016929120

