100
CSD_code = OWIBIG | q = 0 | S = 0 | Stoichiometry = C38H55BIrO4P | MND = 9
Ir        9.82997850558252    7.60467383137991   13.20335383421009
P         8.19911155418744    6.66936754013210   11.88194393821730
B        12.32476329200468    4.81321436953001   14.44912339672089
O        12.15102587229512    5.07485168501037   12.95174339500666
O        12.47742927905951    6.22086045606573   15.01323173963206
O        11.10464597944780    4.17462313206796   14.99388191838922
O        13.43327771716562    3.93618968703067   14.74911389287873
C         8.28449752226476    4.80566166416772   11.80795411678393
H         7.41551360486256    4.46725330018772   11.23027840240180
C         8.20065961736744    4.23861595909584   13.22612740236875
H         9.08920744438490    4.53934910520428   13.78404798350252
H         7.32077410252758    4.62777718210154   13.74320029162935
C         8.14173181836857    2.71356834330802   13.18845961921840
H         7.24136932229199    2.38817012893102   12.65749392557476
H         8.08992131853358    2.32594843376834   14.20640463252517
C         9.37858796518729    2.16240215270795   12.48974138243226
H        10.26437651700803    2.44794689448320   13.05777203546589
H         9.33718143026756    1.07206652180922   12.45290711234337
C         9.47932225260635    2.73345960227351   11.08041210864633
H         8.61332197985827    2.41606535351410   10.49066690664932
H        10.37638399927284    2.35235826696246   10.58932574381337
C         9.53973926835003    4.25998350441769   11.12963902719171
H         9.63334076307315    4.64143013056711   10.11067832154201
H        10.42221557644350    4.54410359379944   11.69969486840008
C         8.43431227280766    7.15206116694480   10.08982903999719
H         9.42540848823344    6.73337004350640    9.87582507199686
C         7.45911149851557    6.56683913707849    9.07029800264782
H         7.34365439465265    5.49168036739537    9.21225935107058
H         6.47961810221371    7.03431494939570    9.17643287603895
C         7.98719511533545    6.83829010351162    7.66052097702824
H         7.28865890328559    6.43858095510832    6.92258427379729
H         8.94119113124449    6.32309602854419    7.52692730996188
C         8.18338792409176    8.33425902608827    7.42808313548669
H         7.21490526398827    8.83735486001731    7.47643325715321
H         8.59515929500432    8.50114712577413    6.43113806367213
C         9.11139139505493    8.93127024142604    8.48355508091100
H        10.10389657204452    8.48471906228895    8.38938536192118
H         9.21124200586969   10.00641337347733    8.32234658436732
C         8.55099915065144    8.66113788321447    9.87817704360709
H         9.19127751969203    9.09231622648718   10.65026122893933
H         7.57565131664389    9.13758645261440    9.95364366401918
C         6.39469293718669    6.97094000605893   12.34063265891193
H         6.41188197343098    6.93440584915757   13.43601082589661
C         5.34056458067804    5.96302898131951   11.87749887106581
H         5.23012481091773    5.99360894327968   10.79353020763848
H         5.61205960026489    4.94919025283490   12.16711192641796
C         3.99835985520120    6.29968766929749   12.53247689213215
H         3.24149889360834    5.58968480585887   12.19351564259183
H         4.09310144278778    6.19337218786916   13.61532972448487
C         3.55513859876239    7.72184578895810   12.20554694639995
H         2.61551272576725    7.94238361894161   12.71478632473822
H         3.37974676791817    7.80980874702777   11.13097915185728
C         4.62774827529499    8.72197623091940   12.62527227219845
H         4.32051072720012    9.73379284881386   12.35463808633170
H         4.75631599825097    8.68918968836337   13.70899738346873
C         5.94703510403362    8.37713262193714   11.93876785255973
H         6.71883478590897    9.10336675437623   12.19814697872734
H         5.78618324202844    8.41423060783026   10.86151392282563
C         8.75963833105052    7.28040085122860   15.01196640715342
H         7.92361062254259    6.58737980763530   14.91771894693245
C         8.54459396575315    8.61668947821711   14.54662273635384
H         7.54795916748186    8.83920135584493   14.16351563025757
C         9.10243611644100    9.80413748171528   15.29734886940894
H         9.29785724804784   10.63238136550629   14.61241080035878
H        10.03575260711056    9.54795764272129   15.79162943864947
C         8.08751755864938   10.28213058912565   16.34722898155943
H         8.56457971056163   11.04316773250238   16.96871104350553
H         7.24631963877110   10.75557447913838   15.83462985746618
C         7.53308912900015    9.17442623180560   17.24505515936946
H         6.95174159163936    8.47747157424852   16.64190682959754
H         6.84087404115633    9.64831092258322   17.94514581379536
C         8.59248413402767    8.39389238700228   18.03667461716420
H         9.52697025497466    8.95626806528833   18.06028975607994
H         8.25568490759947    8.29874875171667   19.07170963940926
C         8.86372779297213    6.97931050711865   17.51793721354445
H         7.91757700777606    6.44236028360358   17.42014622826374
H         9.46213624591626    6.45501576352880   18.26581928456956
C         9.62855608283128    6.91853980279165   16.18811981875006
H        10.50558483460038    7.55755741683775   16.26698237167383
H         9.98710588376204    5.89672590862323   16.04741807244692
C        11.97061928792865    6.37469566828960   12.81041181847680
C        12.16492824513052    7.05917365043410   14.04799744884130
C        12.03633706422186    8.44246255628814   14.11020624602219
H        12.25426009374209    8.96453627647009   15.03064858864164
C        11.81865824394285    9.16337220263850   12.91510086124270
H        11.82845876621898   10.24318468988983   12.94542265485903
C        11.64132746061707    8.50185264747678   11.71122011760874
H        11.54210882028252    9.06220304815747   10.79277275120528
C        11.66198758858603    7.08464758091933   11.65461333812124
H        11.62138917955020    6.57331290635956   10.70317196283333
C        11.52364265858417    3.01569204967750   15.55350181933484
C        12.91271167473471    2.87363684379051   15.40432548457043
C        13.56678813408223    1.76449885743428   15.89150757548314
H        14.63348913222251    1.65645068534944   15.77644010848321
C        12.80255935251283    0.79460916041204   16.53476270935121
H        13.29258925702678   -0.08524932225428   16.92569651564629
C        11.43582486940044    0.93722687965857   16.68236071486773
H        10.86896965043808    0.16872225081007   17.18760693975980
C        10.77023532891456    2.05721104106081   16.19149590598531
H         9.70397094822293    2.17458848412070   16.30779693595936

