56
CSD_code = OWIMIR | q = 0 | S = 0 | Stoichiometry = C23H30NSSc | MND = 12
Sc        2.84514976899658    0.81877065428991    4.87824795688242
S         1.87079968738240   -0.53092994522197    2.88383808068542
N         2.22508149717308    2.03608415536207    3.21414962688502
C         1.35821514753971    2.14313242382502    6.27557243876270
C         0.50564108632289    1.24632702535477    5.56576839646527
C         0.82837243301337   -0.07558056056729    5.96514844770555
C         1.87568799011195   -0.00425688260077    6.92646450387505
C         2.18594674635192    1.36635983473284    7.12146205323474
C         1.21287163927953    3.63611463845775    6.34372621409330
C        -0.65765435293009    1.62975389428018    4.69911563724850
C         0.05215493176345   -1.31452327851952    5.62936237959561
H         0.68633634476419   -2.19845101434860    5.67953314531531
H        -0.37219904861032   -1.25618073650401    4.62902582448344
H        -0.76887731290710   -1.44250961728614    6.33978630095339
C         2.34843352006314   -1.14959492213665    7.77609878053257
C         5.04558847851528    1.59824257397370    5.62654259176572
C         5.06561974003026    1.74931072260149    4.21394320500110
C         4.94375649362476    0.45984831230116    3.63112298516455
C         4.83101238986759   -0.49180293397452    4.68379545599246
C         4.90764073055580    0.21682449315057    5.91117828937973
C         5.37530063509237    2.67330723298726    6.62113688775994
C         5.43195249093264    3.00880838152601    3.48439293516833
C         5.12214966308759    0.13455117521986    2.17797980947111
C         4.84778491534512   -1.98521630755040    4.52322805434674
C         1.77320234084792    1.08668787307728    2.35325160922673
C         1.25105227569425    1.43056088946941    1.09263116391170
C         1.19388404309620    2.74955063504307    0.72495732175663
C         1.66058311623580    3.72248722836730    1.61429032899180
C         2.16187744611924    3.31467247183861    2.83070498203926
H         2.82377382527198    1.75894229960168    7.90102348933746
H         2.13601801855586    4.10148797022766    6.68776548764955
H         0.94139613260764    4.06196884552912    5.37851099666495
H         0.42286539875329    3.89850710528650    7.05208166514064
H        -0.77833902025271    0.93131434122326    3.87079235697885
H        -0.53528691320737    2.63170222967397    4.28956744438257
H        -1.58043550266152    1.61423204826556    5.28390146772062
H         3.13734069241751   -0.82585294569555    8.45259286314375
H         2.71988537987439   -1.97866855977975    7.17142982237369
H         1.51982661930458   -1.52702254056892    8.37932177242228
H         5.02781131613817   -0.23498596281198    6.88663460002316
H         5.30124920314556    2.29037663471981    7.63695687199838
H         4.71546278492516    3.53717521695766    6.52616999622366
H         6.39850200235013    3.02218749410005    6.46623067574952
H         4.96271214863109    3.05515825210572    2.50228748283735
H         5.14192533113492    3.89108704867494    4.05257290226966
H         6.51423110175999    3.04804538363230    3.33653616137429
H         6.18480736838372    0.01555685753507    1.95129043983621
H         4.73196699674710    0.92885042704153    1.54143258661988
H         4.61400972649402   -0.79296176123217    1.92104907345498
H         4.76630777815558   -2.47379837214744    5.49322571092686
H         5.78388780453303   -2.30120444139880    4.05847181724015
H         4.02877000790789   -2.32800622046182    3.88727721053525
H         0.90855379195540    0.63704517171440    0.44788277767324
H         0.79649791459917    3.03688877423253   -0.23743789134160
H         1.63292678995689    4.76925034479887    1.35762371196474
H         2.53936846515743    4.04087594162703    3.54265310010515

