70
CSD_code = OWIMOX | q = 0 | S = 0 | Stoichiometry = C28H39OSSc | MND = 12
Sc        9.46341111081366    6.76697743773061    4.16473956927808
S         7.98344465744458    8.08109102015257    2.56104386984067
O        11.18980158444688    8.01266140377056    3.46411848447838
C         7.90904106988377    7.45534391090409    5.83727060833080
C         8.61122791624495    8.68135280104041    5.65525565147231
C         9.93708448991169    8.50216314099591    6.10829739022081
C        10.07213679248820    7.16684481265537    6.57462900498472
C         8.81398861899780    6.52755773175333    6.42090709093957
C         6.42489359097293    7.28166318089673    5.69017055532604
C         7.96903287546583    9.98075882332071    5.27454196057964
C        10.92537008523234    9.61059442688127    6.33503890633398
C        11.22640314580372    6.63137633203482    7.37615395982146
C        10.41579997873091    5.21475359385320    2.53926903513923
C        11.05489613980663    4.80009033863039    3.73928348251861
C        10.06004443686911    4.29300178251094    4.61508938458983
C         8.79975529611656    4.40526031329390    3.97158215521723
C         9.02561353058916    4.96354552695474    2.68857849559482
C        11.07044120887612    5.57035420519842    1.23297717553784
C        12.52887720931864    4.57548525565733    3.93496343539143
C        10.34529739968273    3.48117322474485    5.84405127854659
C         7.50762314389243    3.78364655646016    4.41920230188596
C         7.44518078225877    7.27150731620303    1.10511734633953
C         6.34607305318607    6.41387652531981    1.14377212535120
C         5.90227133644607    5.79665261811394   -0.00845162505618
C         6.54056747822652    6.02919887850222   -1.21689803858787
C         7.61994283065408    6.89640596163689   -1.26552277215924
C         8.06842002203426    7.51818456826221   -0.11636257012302
C        10.99664480677116    9.06892443616077    2.49913977883370
C        12.37324527930381    9.64608506191087    2.17829923043144
C        13.15728428617975    9.32883471776746    3.44696438611717
C        12.57837646740625    7.96746941380676    3.81008511257484
H         8.53159745872438    5.59213009862590    6.88527316017013
H         5.90497585708478    7.87480501099189    6.44628270387387
H         6.14031959925661    6.23842250194058    5.81822665385415
H         6.08611486314916    7.62593165675565    4.71222943370461
H         7.29329330296757   10.30624771087646    6.06829932077495
H         7.38448658347379    9.87662019731819    4.36113678883445
H         8.71345796104970   10.75889670140477    5.12297940104553
H        10.63106719118148   10.18756606773108    7.21539143667278
H        10.95904818434502   10.29929945459141    5.49192026449424
H        11.92622908579657    9.22292077446492    6.51408126244623
H        10.93649693256992    5.70831450058232    7.87337889365766
H        11.51503087729334    7.35132773317335    8.14365814709669
H        12.11087441964261    6.42523746390181    6.76776547587842
H         8.30257248410570    4.98460459166643    1.88468196699396
H        11.46024861322356    4.66750332347216    0.75532655714657
H        11.90265837503326    6.26392925767747    1.35408185767677
H        10.33967666848860    6.01483656257982    0.55769222672099
H        12.71834297287363    3.50653742984020    4.05261982417522
H        12.91608217377481    5.07267585673920    4.82583523420023
H        13.09464796072912    4.91644771516795    3.07086769057131
H        10.54946145986908    2.44647965707549    5.55519900236751
H         9.49706521529532    3.46768811168495    6.52488273761182
H        11.21803128515681    3.85321517618806    6.37561435614396
H         7.52318744674534    2.70958982536399    4.21734683545884
H         6.66899866037000    4.21566600912366    3.87524248479624
H         7.33679421999190    3.91438329925161    5.48722094127641
H         5.85393468141789    6.23854031000129    2.09098722793126
H         5.05275609142459    5.12959237149695    0.03454873435754
H         6.19445366765803    5.54203786484973   -2.11654167819781
H         8.11548791201533    7.09050338778277   -2.20664535306748
H         8.90158211882312    8.20681073279007   -0.15534752764361
H        10.33537297563579    9.81895177868256    2.94845308384070
H        10.49862212708224    8.65224131952256    1.61951775288128
H        12.32616109643811   10.70973167038004    1.95936387553639
H        12.81520005059285    9.13282980267643    1.32314387229623
H        14.23247058683021    9.28939657874930    3.28844055350794
H        12.93971102674259   10.06021407654552    4.22454982606529
H        13.07470060206677    7.18418149812451    3.22334304969350
H        12.66099658702044    7.72735660308321    4.87144515541423

