107
CSD_code = OWIPIU | q = 1 | S = 0 | Stoichiometry = C46H52CuN2O2P2S2(1+) | MND = 4
Cu        2.66360201560517    2.01963731404871    3.69868454140326
S         5.04762366833007    1.01674993664161    5.50456530295908
P         2.86008960851413    2.98715484550468    5.71724056546131
N         4.26311955294592    2.29480652252727    6.39684713522952
C         5.23300969249727    3.07633786849996    7.15622033872178
H         5.94226614564663    2.36042604440189    7.58966865183236
H         4.71286714466250    3.57104308399117    7.98112585890500
O         4.46490337380704    1.00074313935210    4.15007758032317
S         2.19616196135404    3.25554055806726    0.83299181318656
P         1.25741886532275    0.90313389706946    2.34798704967031
N         1.28352235483969    1.76830617673424    0.87810907977829
C         5.99813999524301    4.11553937909982    6.37028203311700
O         3.02479344140776    3.30361603579160    2.05179240565769
C         6.35957262424095    3.91452727896655    5.04543527501687
H         6.07459380441785    3.00652095388378    4.53319134735449
C         7.06747645881052    4.88414077406241    4.35675541024895
H         7.33751804065380    4.71513289525665    3.32547295288680
C         7.42557908231410    6.06362160281951    4.98531252094144
H         7.97692539916791    6.81931342817643    4.44728760151777
C         7.07345003072015    6.26935008705234    6.30816717100263
H         7.34833780411981    7.18641207710481    6.80625830659522
C         6.36469757711916    5.30125849388695    6.99535594431363
H         6.09031358789828    5.46822583630963    8.02694515776517
C         3.16883713131115    4.78252522482518    5.78625503157968
C         3.65951048656299    5.36920964673688    4.62261691457104
H         3.81607395748399    4.75093654571696    3.74732263128997
C         3.94495407924316    6.72086381896635    4.59750751685533
H         4.33581741056250    7.17477293142078    3.69926636357333
C         3.72892515442273    7.49269479260804    5.72809464800178
H         3.95448568233869    8.54792003075685    5.71094293879118
C         3.21393727586896    6.91596948399564    6.87742715657491
H         3.03390942197902    7.52263538916876    7.75214830199527
C         2.92771411962507    5.56276948714984    6.91050774054439
H         2.51681598673217    5.11639182848631    7.80533153257188
C         1.60461138487340    2.77221776006898    7.02522460950475
C         0.28498965785361    2.89985750059879    6.59913813658899
H         0.09013515510717    3.11388483556421    5.55512956662032
C        -0.75708653173719    2.74945325049193    7.49420388060188
H        -1.77736145736501    2.85157156735585    7.15654012956638
C        -0.48766956582249    2.46069137579528    8.82292911450168
H        -1.29837321888436    2.33958591527904    9.52473045930217
C         0.82266270289900    2.32211619365258    9.25114120018494
H         1.03154699403803    2.09468820828061   10.28576078833346
C         1.86799912346570    2.47571552533609    8.35731091180361
H         2.88769041923107    2.36069342605679    8.69524916964357
C         4.26080474041104   -0.46923742345184    6.32363604037250
C         4.61333825056248   -0.41736282569421    7.79883200401504
H         4.14797279598619    0.44068598772344    8.27623931788142
H         5.69169012889112   -0.35494076173859    7.93343471174691
H         4.26106258839816   -1.31666334014309    8.30068684411724
C         4.93661246589037   -1.64631305855642    5.63124755369596
H         6.01601312714596   -1.60271041140026    5.76526755073930
H         4.71798099704332   -1.63108190551822    4.56594963783053
H         4.57732033453977   -2.58763721411182    6.04261273888589
C         2.76686186524240   -0.46612258808285    6.07516192020981
H         2.32459754221745   -1.40004981771027    6.41846758817973
H         2.56858936295867   -0.36478002985540    5.00683622842262
H         2.28660035990120    0.35680313572874    6.60304158575764
C         1.29807282286235    1.10538242812365   -0.42128956299781
H         1.17018016968964    1.89161165125208   -1.17560732977326
H         0.43226539991923    0.44033136675085   -0.48327444103440
C         2.54436186146576    0.31295017403405   -0.74050014166117
C         2.43386538904513   -0.84082151885718   -1.50705562149665
H         1.46193209945340   -1.16073862407338   -1.85401818475003
C         3.55534756625033   -1.58391205740097   -1.82628189083002
H         3.45328156245980   -2.47920024990977   -2.42021910170325
C         4.80350293517790   -1.18203066094688   -1.38258443388616
H         5.67927525055324   -1.76221567211345   -1.62944463060598
C         4.92240316755694   -0.03256199606159   -0.62154977884350
H         5.89148720480192    0.28817330099155   -0.27079963696423
C         3.79987202474917    0.71208437656098   -0.30380060451246
H         3.91020821052868    1.59820779292626    0.30510400761109
C         1.68863106802689   -0.80262025172371    1.87086421986266
C         3.02304785123725   -1.16845560191431    2.02762436540828
H         3.72268799622243   -0.44620648720354    2.42980012844457
C         3.43921212764444   -2.43550513112788    1.66650845684107
H         4.47567868960462   -2.71679017811210    1.77725209202543
C         2.52326320178075   -3.34465817835322    1.16137337916083
H         2.84743044618100   -4.33370150892197    0.87610931225510
C         1.19015787259816   -2.99150654986434    1.03153395918983
H         0.47661215337750   -3.70656542501630    0.65058465834319
C         0.76666139934563   -1.72383047231707    1.38907672245641
H        -0.27590585711493   -1.45327817237649    1.29622885017158
C        -0.52394394599026    0.75026336006655    2.71780739999061
C        -1.55686025284009    0.94462031320543    1.80832382364482
H        -1.33417565567254    1.20271612703047    0.78312820231620
C        -2.87230027661127    0.81317028097639    2.21758851662518
H        -3.67174305376906    0.96220028801300    1.50732888306980
C        -3.16486423282519    0.49005128219024    3.53273039328104
H        -4.19259396885690    0.38900987798359    3.84576045721754
C        -2.13934540094248    0.30177909892326    4.44613780834705
H        -2.36473265144576    0.05626869029644    5.47294710402745
C        -0.82508820358053    0.43598194996389    4.04055611806472
H        -0.01312917301467    0.30369276222243    4.74551894589206
C         0.82814176592463    4.47661840707584    1.20069538490046
C        -0.21581878444701    4.33656416282765    0.10812252462358
H        -0.69419031621166    3.36204275419633    0.15499707710447
H         0.23741528941239    4.46096446483643   -0.87367331091765
H        -0.98519809692709    5.09760666789006    0.22467360622342
C         1.53550413776209    5.82407487281026    1.12475123347266
H         0.83045333568337    6.63470739506566    1.29845882361965
H         1.98730288592030    5.96605462970756    0.14460399222168
H         2.31707254589162    5.88075214945641    1.87896846884376
C         0.26821086530319    4.22436820257988    2.58507232978265
H         1.07924694768774    4.20132191820153    3.31482745699428
H        -0.26637542233473    3.27599875506656    2.62131054429410
H        -0.42157311042544    5.01923652031806    2.86446291462804

