63
CSD_code = OWIPUG | q = 0 | S = 0 | Stoichiometry = C26H31ClNOPPdS | MND = 5
Pd        1.67689217554112    8.96572921125965    2.74481648977505
P         3.66393425415521    9.94450415747862    3.18774902553003
S         5.28685566891879   10.86059555943513    5.49178676603854
N         4.09804112181780    9.82203653073649    4.80282120663795
C         3.44550660622300   11.72680483255596    2.82979133166672
O         6.13555365751070    9.99323125084820    6.30560022084199
Cl        0.76793079627982    9.99768851857026    4.60372663288200
C         2.20574212305781   12.15167114735423    2.35966078345323
H         1.38497725570757   11.43207399040168    2.26142318446506
C         2.00103283917907   13.48052210155656    2.03040940148610
H         1.03374595950028   13.80639010622058    1.67771451981399
C         3.03689243218563   14.39091759309411    2.15243574780988
H         2.87777624319714   15.42875533375650    1.89982167370668
C         4.28351492793237   13.96795926313884    2.58730132122328
H         5.09675944484659   14.67481386704007    2.66490062467514
C         4.49241718538845   12.64143186096364    2.91754293752963
H         5.46900872554479   12.30913902899580    3.24036041209894
C         5.21432231936223    9.72523359428971    2.24126407326520
C         6.44793991085734    9.43648374361933    2.80774954252751
H         6.54444115551669    9.32691282580896    3.87790920063573
C         7.56427855506453    9.30282812485460    1.99881565831856
H         8.52264589415051    9.08005687373024    2.44424597759108
C         7.45619655789030    9.45573535143920    0.62718783283273
H         8.32902559105077    9.34771258972486    0.00046657104772
C         6.22738787788994    9.75284394949656    0.05738660236285
H         6.14296739440678    9.88002247492891   -1.01215874237258
C         5.11349976959349    9.88607677505077    0.86225029265689
H         4.14697758047105   10.12837113645071    0.43440980290867
C         4.29542653521985   11.83900774322588    6.75656933887316
C         3.06761936482287   12.42617243666028    6.09171399032032
H         2.42442519263273   11.64871536669829    5.68149397276555
H         3.34791056977772   13.10416190410828    5.28832386575496
H         2.48685804230015   12.98732904911059    6.82243551953117
C         5.29756312340478   12.92545248946548    7.13561346253364
H         5.59334028541154   13.49542903638615    6.25582927194446
H         6.18731437934609   12.47531418879207    7.57148878540026
H         4.86389836234517   13.61223114060347    7.86056666409028
C         3.95827077575252   10.97030186013256    7.95196711017182
H         3.79329325872488   11.58855920995597    8.83315538302829
H         4.78775539997638   10.29557433351907    8.15919518216123
H         3.05925170412782   10.38836670697281    7.77040867723882
C         3.62410079667403    8.68208735079670    5.58673373432535
H         2.68947686844666    8.94500340918351    6.09249946216960
H         4.40345158868075    8.48161010221378    6.33069734589197
C         3.40951183468698    7.46359536648069    4.73032672294384
C         4.48314908451828    6.87420773350038    4.06709440183082
H         5.47112013209065    7.29506085800070    4.17981493638701
C         4.30177686189740    5.73920756399127    3.29655263436481
H         5.14493980785757    5.29523823412151    2.78808636250037
C         3.04646866218296    5.16253818957382    3.19349984399390
H         2.90778217207870    4.26607284984658    2.60606802545260
C         1.97058239479406    5.73020538269287    3.85892768219772
H         0.99894989640964    5.25607832688078    3.81198564287996
C         2.13888712249210    6.88791583703049    4.61138122993321
H         1.30547287389176    7.29072323513069    5.18185867126250
C        -0.14329657405830    8.10450973722337    2.06781701229656
H        -0.10714407603848    7.10180721993827    2.49306954108477
H        -1.10806520842699    8.59707449529051    2.15066135971702
C         0.68389073890329    8.41647355786202    0.98035770158923
H         0.41182803564790    9.23359794295588    0.30768710127710
C         1.98552068389552    7.88980425368353    0.94215783472049
H         2.16095457594422    6.88006036337002    1.30877423899098
H         2.64745071041789    8.19147073148295    0.13829819876750

