36
CSD_code = OWIQAN | q = 0 | S = 0 | Stoichiometry = C11H23NiP | MND = 7
Ni       -1.54007241325803    2.90491908675775    7.32528809041693
P        -0.65608599469729    3.31127464116416    9.52246966180451
C        -0.31982182807852    4.04803144960114    6.14378493173926
C        -1.67670751218356    4.35374106795732    5.90752896267269
C        -2.47344009093832    4.71490871922361    7.01074844204740
C        -2.28893448844941    4.15164633038845    4.54707395783161
C        -0.90071779522051    0.99938470039483    6.93338073331422
C        -2.29542006808952    1.10822229637551    6.75158678141416
C        -3.06243551735979    1.60927269699890    7.82076495444701
C        -2.92316275467119    0.84294788693618    5.40920763144508
C         0.18033385900914    1.95896230911227   10.45067526148033
C        -1.89485423830033    3.80999390276145   10.78966086649923
C         0.58149722149458    4.64877616150636    9.78657886887197
H         0.22609293855790    4.63877609522082    6.87586466378258
H         0.28751568160016    3.73629614322436    5.29968750622339
H        -2.03287973889395    5.33298961348939    7.79065859206417
H        -3.52624503004903    4.91658104116856    6.84124902204404
H        -3.33799455552280    3.87136328921298    4.61350729320190
H        -1.75173757304030    3.40213596121303    3.97001348352652
H        -2.22746305117484    5.09935272476808    4.00779418871042
H        -0.52626284168042    0.67722826327660    7.90242699038713
H        -2.79085837764767    1.32132992501322    8.83453557849449
H        -4.13129392087659    1.72922379665123    7.67596393319141
H        -3.80766282038451    1.45573244338920    5.24885480217116
H        -3.23061428774802   -0.20471288538065    5.38423021378154
H        -2.22007664596729    1.00537064325868    4.59522548593978
H        -0.49298813281958    1.10855088588441   10.53971424914044
H         0.46929703266905    2.29480495805661   11.44518387019432
H         1.06566184427646    1.64443708857044    9.90179325353345
H        -1.41735875029462    3.98357312286127   11.75284144259276
H        -2.64180821822587    3.02549090889794   10.88815027090928
H        -2.39646422635583    4.71726636031139   10.46039871922672
H         0.18007710554543    5.59299493254563    9.42352827313080
H         1.48426588790040    4.41666019450676    9.22522486863171
H         0.82591930485499    4.74442196660108   10.84319916484062
H        -0.30320000397811    0.64545127807986    6.09900499029709

