88
CSD_code = OWIQIV | q = 0 | S = 0 | Stoichiometry = C35H50N2Ni | MND = 5
Ni        0.76194277238415    0.71404374158720    4.91478657364272
N         3.44243821339874   -0.29942782236569    3.97292079894777
N         3.66585409681580    1.53918440403810    5.04671376239719
C         2.73186097936838    0.63970022113315    4.64611577682068
C         4.77971385845153    0.00081578014891    3.96014599375350
C         4.92068040614279    1.15985976571420    4.63615537079855
C         2.90295218399284   -1.42137440078243    3.28830981256071
C         2.86703698563530   -1.40803451154327    1.88894627898718
C         2.31700502456281   -2.50541601398140    1.24040372760130
C         1.80683108987828   -3.57202877346214    1.95574438704925
C         1.87714801525815   -3.57928601519346    3.33484764750163
C         2.44606587701106   -2.51643416647657    4.02461290171468
C         3.43514668201886   -0.26096924739201    1.08268983834294
C         4.72849484900310   -0.71084199638333    0.39511591206817
C         2.44868845564773    0.27075912755356    0.04171700339050
C         2.56089703006944   -2.55221679785754    5.52889393899830
C         1.19046305753393   -2.29682430200383    6.15402225135286
C         3.15253334461401   -3.87485375823837    6.02096286197117
C         3.49714375565520    2.74885921979296    5.77777728134800
C         2.81231614515873    3.82609009822024    5.19780882483138
C         2.79382115051071    5.03259899324464    5.88055964248462
C         3.41592988857256    5.16706367715504    7.10819465876893
C         4.04360567589036    4.08418503694014    7.68680887853743
C         4.09481792410465    2.85721249988464    7.03632170713805
C         2.10236516120201    3.65267929444296    3.87540803682506
C         3.10444808696097    3.69128389896397    2.71822573202921
C         0.99446536749865    4.67573837223768    3.63734870934256
C         4.74789395577895    1.68191151189930    7.72829209821848
C         4.05431493114876    1.40093873122437    9.06424936352394
C         6.24280318306548    1.93015196516444    7.94643025917653
C         0.83930587016301    1.26918903759028    6.85659227798457
C        -0.34687623451934    1.27874181674669    7.73818782235139
C        -0.75624183445406    0.22309207331574    8.44230473911928
C        -1.05267957840173    2.60176482721011    7.87347461244830
C         0.11754975560760    0.30774763344191    2.97177772110713
C        -0.87139748300881    0.04199843684717    3.91467371102794
C        -1.16751876145609    1.03868170570509    4.86689954582889
C        -1.46582103346997   -1.33389095797944    4.03745319937148
H         5.50240694337996   -0.63220409310619    3.48893039505888
H         5.78893778939258    1.74933483285980    4.84588277584571
H         2.27637498973544   -2.52407828289316    0.16222426408858
H         1.36120929936262   -4.40609583406080    1.43356636718655
H         1.48817579711413   -4.42422373738056    3.88131830361651
H         3.67268308667207    0.56776221276542    1.75548567247658
H         4.52482664146079   -1.50905185875985   -0.31485172134312
H         5.44980405728650   -1.08042964519221    1.12079607949712
H         5.17711539149288    0.12200796151514   -0.14196275027019
H         1.52127647602232    0.57819135480908    0.51561195686308
H         2.22005602096919   -0.47900573247687   -0.71093447409550
H         2.88000008837272    1.13363375218209   -0.46188047840452
H         3.23064223307588   -1.74851643874761    5.85147743632690
H         0.47626216959306   -3.05680748532548    5.84627800635042
H         0.81842028530937   -1.30909233390704    5.83861023194889
H         1.26586508530578   -2.30519944132938    7.23869796360824
H         4.08755318558815   -4.09261421895569    5.50804232530453
H         2.46808683194156   -4.70282769725927    5.85652456005659
H         3.35156005477746   -3.81158661945391    7.08845365696597
H         2.28851046559401    5.88333019066494    5.45439039896311
H         3.39515665747254    6.11762285374883    7.62028915342231
H         4.50100669218815    4.19196844622658    8.65776517004446
H         1.62055645174571    2.65921474820141    3.90667762812444
H         3.88386574853660    2.94292300442797    2.83981562222791
H         3.57925261407342    4.66995046905681    2.66744312358774
H         2.59615842459932    3.50590487082816    1.77445883897119
H         1.39789452582922    5.66908133032293    3.45138336425551
H         0.32430200194485    4.71772453299363    4.49240770089831
H         0.41508174820698    4.38569180056416    2.76285864213721
H         4.63460433632729    0.78849467443163    7.10782258220013
H         2.98491855686817    1.27497472746484    8.91575876767760
H         4.20986339505783    2.21516834465626    9.76666877439937
H         4.45418658960336    0.49011474363146    9.50450677396012
H         6.40044578847461    2.78599560037476    8.59764116678551
H         6.75007790742418    2.12450858533531    7.00387788815386
H         6.70178833292243    1.05940198260476    8.40905526043622
H         1.59132088255279    0.58522891447170    7.27859316431084
H         1.25904231214919    2.28407850787515    6.83350239679328
H        -1.61563217007735    0.26835978438256    9.09096790681354
H        -0.25797701867749   -0.72920510029475    8.37967742870669
H        -1.19188882087738    3.06542733724486    6.89980002437847
H        -0.44489937597049    3.27756840280776    8.47723127286335
H        -2.02135746741250    2.48868033551787    8.35516325159363
H         0.21467791080239    1.31925111878278    2.57889908142554
H         0.37987376879088   -0.47207108243609    2.26684786219963
H        -1.13308983616308    2.08175280350826    4.54016105227304
H        -1.93761345871193    0.83365357348928    5.60108621719633
H        -1.71206902481315   -1.57159950221115    5.07043359906139
H        -0.79598880177779   -2.09514013622486    3.63992309321823
H        -2.38982441135212   -1.35844566426746    3.45572856247276

