63
CSD_code = OWIRUI | q = 1 | S = 0 | Stoichiometry = C26H35AuP(1+) | MND = 3
Au        2.41923183723126    2.28443608350593    2.93832530131587
P         3.41281374091110    4.35203515086077    3.15316860158015
C         1.60868123771875    0.21839710372903    3.50314573725128
H         0.64830921269394    0.46578620756972    3.93565654186876
C         1.77960056434146    0.22554612065932    2.15341624466696
H         0.95570434555305    0.47461779920588    1.49873278983988
C         2.97636752160864   -0.42594635179068    1.52715987763396
H         3.22940396264326    0.04948129472161    0.57746175348864
H         2.71538635269593   -1.46647964506679    1.29689554641613
C         4.14655233753436   -0.40906754800609    2.46706458914692
H         5.12972608126608   -0.41073980995922    2.02333128342830
C         3.98094066159261   -0.41614658103438    3.78018361491759
H         4.82367207575432   -0.42837222808436    4.45385250657383
C         2.61410681260496   -0.43937373364970    4.40072217700207
H         2.62307594062083    0.02870641790624    5.38723317483717
H         2.30497027023107   -1.48147759640163    4.55046340288502
C         4.29704870871636    4.35802339152784    4.81909298412884
C         3.19611712750457    3.99439523742288    5.82054454390283
H         3.61352582795861    3.93209396465987    6.82325736024256
H         2.74361222012161    3.03162889263531    5.57701458053792
H         2.41383899202143    4.75228979467060    5.82640000931998
C         5.35611853537868    3.25697618972642    4.79831162526618
H         6.21307727446351    3.54155239671232    4.19265279103997
H         4.94222004631138    2.32509904762422    4.40903126453095
H         5.71287707745742    3.07269434713613    5.80987178571462
C         4.91734344344109    5.68722235429943    5.23940826528041
H         5.40641525575842    5.55170724734066    6.20276540346939
H         4.15753457939147    6.45553876246914    5.36070030580623
H         5.66776399433656    6.03408522819833    4.53606471289616
C         4.54144858260502    4.64708829393324    1.66143815131292
C         5.07620226940990    3.27441331719600    1.23986959038115
H         4.25863165758965    2.60351301645237    0.97598056546983
H         5.66289977631233    2.81029284944424    2.02886043932060
H         5.71515988088798    3.38603199994909    0.36611360824779
C         5.72907101137409    5.58575823421270    1.85676134348723
H         6.26346767781621    5.66699820891510    0.91118862335753
H         6.42618113333725    5.19753254030146    2.59504712384890
H         5.42836513375793    6.58961108374113    2.13986161729429
C         3.61286254497884    5.17266899115284    0.56398191253227
H         4.12748439735412    5.16220701989406   -0.39451451742588
H         3.29097612973160    6.19190364443910    0.76621793394528
H         2.72725243038732    4.53984350874272    0.48151809961599
C         2.28569436563017    5.77742575218832    3.26162086508916
C         2.81040588506526    7.07207183045117    3.28329504064061
H         3.87227368604974    7.22004328779633    3.17418042418430
C         1.99414585166908    8.17466176888632    3.43828059889933
H         2.42390809234608    9.16438690808555    3.44707567261239
C         0.62789428663635    8.00228958761056    3.58879504679649
H        -0.01793049546668    8.85584739048491    3.72209780986094
C         0.09398487693805    6.72876708637072    3.55776680244904
H        -0.97179166083638    6.58599349265460    3.65880411374510
C         0.90176608886240    5.60674812915428    3.38391569798839
C         0.19533526549812    4.30812780515791    3.30553064383615
C        -0.33106150561978    3.71757050714386    4.45051239576304
H        -0.13920148082859    4.16291264531041    5.41558149398569
C        -1.11766178930882    2.58279023430386    4.35396453956532
H        -1.52937904915957    2.13982270615988    5.24845970688740
C        -1.40262407041187    2.03470346072755    3.11356734475465
H        -2.03956122005792    1.16636641503916    3.03834246855620
C        -0.88895554195368    2.61981798977684    1.96748630570105
H        -1.13149743639897    2.21387954571487    0.99655711135319
C        -0.09035874339648    3.74732790960939    2.06055940226338
H         0.27587593133724    4.23107330040326    1.16615324868502

