61
CSD_code = OWIZOK | q = 1 | S = 0 | Stoichiometry = C27H29N2RuS2(1+) | MND = 9
Ru        1.03251372422073    2.12477508666831   12.69665995452836
S         1.17568287825250    0.43031906812897   10.95616243795401
S         2.18320135159460    1.05504335146024    9.35608775768035
N         0.71565244932805    3.36497218799328   11.19174223161056
N         2.87854470986916    2.65663557658702   12.26615927880829
C         0.38067856731329    3.05081007108734   14.74883916286723
C        -0.77050457187721    2.75662421974623   13.98763380316868
H        -1.51239305386377    3.53504230552611   13.83390362698907
C        -1.04776295916241    1.44603205275658   13.54830617045893
H        -1.99566146100613    1.22991341724227   13.06772703607485
C        -0.17654115481606    0.37990470002000   13.85473582920151
C         1.02597556010958    0.68408625817527   14.53154166232999
H         1.68781992376860   -0.12529703742843   14.82112192342389
C         1.29628107028510    1.99651311210706   14.96926708015839
H         2.16941556969969    2.17411822977623   15.58859650660627
C         0.62151621493805    4.43762119499709   15.29705607791322
H        -0.25837338664940    5.05015438527047   15.07092179135190
C         0.80677051605230    4.40914218279912   16.81591297453485
H         0.87500773423811    5.42490468229909   17.19517335578868
H         1.71583634446699    3.88281633952457   17.09517176238044
H        -0.03822373326147    3.92063993150715   17.29519494211615
C         1.83303192036048    5.07261747677960   14.60525630971119
H         1.95797955096712    6.09900189177553   14.93937331266124
H         1.69210957029171    5.07835456674030   13.52134004166122
H         2.74540742900963    4.52627484366453   14.83850737995128
C        -0.52232091930902   -1.02277464664634   13.48246608456223
H        -1.59594599406482   -1.18550723104798   13.54291712498517
H        -0.01075333112284   -1.73578307783265   14.12398467684148
H        -0.21362628255512   -1.21493578616746   12.45128068757878
C        -0.48791449777001    3.60457299122734   10.67015534041730
H        -1.32670166305249    3.11170916006099   11.14577624051029
C        -0.67575008123206    4.40976307285403    9.56576430479289
H        -1.66867995340283    4.56786140222667    9.17857952417306
C         0.43248321078915    4.99423453768429    8.96037783183267
H         0.31683480650178    5.62261597183512    8.09236153563553
C         1.68452130481399    4.74025728033258    9.48239252181593
H         2.56493594088468    5.15803531392789    9.02399055416288
C         1.80452535892993    3.91415449347194   10.59965362617444
C         3.05241319393995    3.53235338071436   11.24300523725986
C         4.31973817427128    3.99358612021545   10.88899952187818
H         4.42870828283577    4.68906850326260   10.07374331168476
C         5.42509748084662    3.54901208787396   11.58762958433048
H         6.41345814445897    3.89957357830738   11.33703025117219
C         5.23853205387344    2.62832480248534   12.61516387383296
H         6.07576707995143    2.23722492032940   13.16949429263433
C         3.95855282689727    2.20809584283826   12.91237314740261
H         3.78508852172041    1.46938312212171   13.68518483500368
C         3.86528819158598    0.29898311501041    9.58976009491411
H         4.29476750379724    0.74429336541186   10.48667963643018
H         3.69506385827864   -0.76586084043854    9.74069548579814
C         4.68104257748191    0.57000745796104    8.37310836178161
C         5.59840180727690    1.61312550213414    8.35176127794349
H         5.73624977793013    2.21901793656055    9.23649040050921
C         6.34312000949870    1.86750553294772    7.21416855419259
H         7.06008907747317    2.67485094586520    7.21088043818084
C         6.17151229420435    1.08733206980670    6.08338786180212
H         6.75313365060274    1.28580843443160    5.19643484930601
C         5.25295482443713    0.05074741640332    6.09442192114096
H         5.11625256545568   -0.56031526662322    5.21551396695613
C         4.51009763714879   -0.20588867651240    7.23185178488738
H         3.79309780245461   -1.01365292810268    7.23972884741563

