89
CSD_code = OWODUA | q = 0 | S = 0 | Stoichiometry = C38H38N6NiO6 | MND = 4
Ni        6.51292708808442    6.14379103872940    9.07400530536709
O         7.75140791015126    7.49189316525911    9.31106237997281
O        17.29108237524775   10.86286408685891   16.61865240540700
O        17.89269701634230    8.72203490723103   16.33535978244871
O         5.73594652286852    7.24016482155691    7.80671041022318
O        -4.10941439042388    6.22144999789589    0.48806091352694
O        -4.73596393828819    8.32275520803829    0.98282697487375
N         7.20742671401617    5.11147425343773   10.44593235556219
N        11.82462370019832    8.01867108468093   12.93164835465560
N        12.49439621557557    9.09729304031090   12.96383083605867
N         5.32432776467376    4.76015772866898    8.75704265895378
N         1.00758198707388    6.72365654978352    5.09249321185234
N         0.53737919400335    7.72886644591168    4.47330669987436
C         8.17970928963530    5.43341039255494   11.23671276344447
H         8.43374557376009    4.77476506346402   12.06397925901532
C         8.98455801549455    6.59962502738875   11.14368733239846
C         8.70996473137917    7.58909542073592   10.13893463933779
C         9.56146570889238    8.73473693460115   10.09965821852413
H         9.35591129502179    9.46852088976733    9.33519556269971
C        10.57478696313937    8.89923151675151   10.98870287626830
H        11.21126469646928    9.77125684052718   10.96052519821882
C        10.82957585289753    7.92732142521240   11.99353766321490
C        10.03338207132556    6.79390353979302   12.04598988012262
H        10.23654472162212    6.05634706887202   12.80892722433204
C        13.57690275443272    9.17722675165749   13.79482673444665
C        13.91248208190702   10.43576490688465   14.31623854409572
H        13.24932722864907   11.26658571142713   14.12912472264069
C        15.04623767756785   10.59201456003562   15.07754515864812
H        15.29902101760283   11.55550045703566   15.49165929767553
C        15.88904661233898    9.50340901866114   15.31583112576435
C        15.57073196441904    8.25418305844545   14.77886606974123
H        16.23699603261342    7.42692121937910   14.97383904655413
C        14.42988102976381    8.08692716924118   14.03142055808022
H        14.17136096720816    7.13046796743398   13.60178632543671
C        17.11776122541082    9.62690168073718   16.12512620451894
C        18.45451617066340   11.06043691162919   17.41863006954415
H        19.34201220917956   10.83746550260018   16.81489917897515
H        18.43189604847710   10.35468051000076   18.25722754795849
C        18.46296457361911   12.49749252629932   17.90487256315767
H        18.48125152078364   13.17879048855871   17.05838925088583
H        19.34153668307432   12.67017142946034   18.51964753381693
H        17.57158405463151   12.69837897303649   18.49325446354469
C         6.41382817910120    3.90337051130268   10.73726008900625
C         7.26297847545548    2.76825706945046   11.32350718922474
H         8.22453291436229    2.70048809380061   10.82129232774077
H         6.74903387878675    1.81817284971315   11.21387299989832
H         7.43054041283699    2.91906240129173   12.38690590645512
C         5.33754600110202    4.32139373272574   11.75251077600104
H         4.75026775634996    3.46621897301088   12.07251175827364
H         4.67896512561775    5.07074558107402   11.31356520914563
H         5.81295197961273    4.76044259964787   12.62721514653640
C         5.75469701317206    3.49637087808056    9.37956585452440
C         6.80558934330537    2.89582177211132    8.43009162514980
H         7.15224338384947    1.93169162609206    8.78883774284976
H         7.65413407767087    3.57524047925462    8.33469340981167
H         6.36753282470955    2.76105662991387    7.44318935092020
C         4.61250011238813    2.49340143077911    9.57592761515316
H         3.72321055418489    2.97850519144136    9.96959031880667
H         4.91552317940775    1.71691588924886   10.27185030005563
H         4.36413097411274    2.00327508651290    8.63777459964940
C         4.30006950952515    4.78288114254306    7.96869651424235
H         3.70346188096718    3.88371867491132    7.83715449672974
C         3.85362045112528    5.90270709022451    7.21596198297790
C         4.63951218627061    7.10487410785711    7.17904063030312
C         4.15135999231403    8.17978884468540    6.37591898071460
H         4.75156783750632    9.07638135216271    6.34523077650626
C         2.98251721292640    8.08311150881129    5.69140585072677
H         2.61203984482769    8.90221335733068    5.09303131856848
C         2.20197904584111    6.89689207740477    5.74239388031336
C         2.66050240827662    5.82580863263901    6.49382291686839
H         2.06554265865559    4.92437798613050    6.52374342030891
C        -0.58792425356852    7.56904617482044    3.71347286086996
C        -1.42754285829837    8.68063715546892    3.54751815183048
H        -1.21260233184723    9.58084011569965    4.10249952962367
C        -2.51814158187414    8.60097577846607    2.71602997013047
H        -3.18265288701886    9.44178866918543    2.58538419465301
C        -2.78876134066218    7.42545919601576    2.00968112116795
C        -1.94452597573029    6.32349269385749    2.15618454687198
H        -2.15678806031852    5.41838326731780    1.60832459726534
C        -0.85953529103726    6.39132793180767    2.99811219139265
H        -0.18856813130227    5.55360063320377    3.11916795439546
C        -3.97258404662899    7.39627274316451    1.12709277841183
C        -5.23828263016765    6.08852943767028   -0.37164181824181
H        -4.96737886798496    5.29846780094381   -1.07564389930091
H        -5.38926550048955    7.03140902708040   -0.90819559638964
C        -6.49480138485009    5.72356475270924    0.40687503374441
H        -6.33129547789282    4.81464439187400    0.98127457133726
H        -7.31884609969935    5.56612076859323   -0.28321602041588
H        -6.75401942644029    6.53044860140081    1.08784954335677

