121
CSD_code = OWODEK | q = 0 | S = 0 | Stoichiometry = C48H60N6O6Pd | MND = 4
Pd       10.95679572082135    0.04970163382690    7.36922086160888
O         9.09653417357586   -0.74814257173825    7.52934541392399
O        -1.67081646883860    3.40167882182607   12.31549433775462
O        -1.60974764020984    4.69165468514193   10.48320630893753
N        10.09818868214547    1.73621999503212    6.72873784455403
N         4.75049437308498    2.03812855392554    9.38876791556313
N         3.84834558328056    1.42584815118851   10.04621586122169
C         8.92221116785368    2.12258962249437    7.05900335976366
H         8.55704931242118    3.08410732871297    6.68488066584144
C         7.97368807785877    1.36351828454928    7.82414653825613
C         8.10361483612323   -0.06268280416415    7.95486140178606
C         7.00681761215977   -0.75579327648932    8.54530744447184
H         7.08396613776397   -1.83245480088728    8.59833167689293
C         5.91136742004771   -0.10897177302873    9.02676687964045
H         5.09341776102740   -0.65014623336593    9.47643738207655
C         5.81241598123011    1.30114321962855    8.94271164696670
C         6.83773117759561    2.00107211362442    8.31481956107928
H         6.73935471037668    3.07255873395295    8.21768486477077
C         2.69872755556500    2.10002706359645   10.35543932080711
C         1.97632038899396    1.69298638867463   11.48731087313727
H         2.40329798764119    0.94308498649440   12.13568537037941
C         0.75731219142626    2.26010016116359   11.77407089148561
H         0.20438934341346    1.95471832731664   12.64856329568437
C         0.21677161807595    3.23270691926739   10.92939274325035
C         0.92617852710730    3.63118650082561    9.79422775347884
H         0.49052672691243    4.38448730197419    9.15474329435674
C         2.15007010089453    3.07698286601020    9.50798090267683
H         2.70795905271003    3.36255908497652    8.62854678418152
C        -1.09454633766513    3.85774130456753   11.19218361975201
C        -2.94443658559065    3.95670807356158   12.63507804569485
H        -3.62470106958411    3.79225649454811   11.79126165929435
H        -2.83498008540441    5.03879258629619   12.77309421592891
C        -3.45566437080945    3.28752032042518   13.89701974638183
H        -3.54988975638774    2.21622798377396   13.74023589246446
H        -4.42745901347073    3.69563184791361   14.15910718742021
H        -2.76424020970433    3.45903507788601   14.71772505477570
C        10.84897645849625    2.44069530208923    5.71743198589481
H        11.84206402827849    2.67105063411262    6.11873491350982
H        10.34696265504544    3.37164250390459    5.42241213779215
C        10.99894464093617    1.50047089133942    4.50756435251661
H        10.02381030315128    1.38310876799382    4.02574644719188
H        11.31721311503556    0.50343937983283    4.87844791638377
C        12.02239630620358    2.00093753392297    3.49289886155341
H        12.98091922717458    2.14062383175722    3.99382801776476
H        11.70249210388756    2.96663767306049    3.09407462407369
C        12.18162011406836    1.00288421703756    2.34755376834268
H        12.58334394201669    0.06710731750638    2.73979720344391
H        11.19461530593279    0.78578175374545    1.93047002844509
C        13.07368744019426    1.50974534247163    1.21395984659441
H        13.07282398465955    0.76015365962372    0.41881969256977
H        12.63709642551615    2.42379518024553    0.80307778640081
C        14.52223721511444    1.79684874121320    1.61084033203280
H        15.05293821960701    2.13843235053897    0.71834774127590
H        14.55463242526765    2.61123477516409    2.33700285871965
C        15.25418785550299    0.58283637390035    2.17996812379707
H        15.09072603594404   -0.27846314057178    1.52815630741306
H        14.85480997029588    0.33618440518022    3.16541789110458
C        16.75067992329165    0.84176018628213    2.30453618267647
H        17.20120247075490    0.96637044857209    1.32173735207820
H        17.23850288927101    0.01180292878936    2.81119302033173
H        16.93248141766917    1.74884411973174    2.87773186932543
O        12.81702760924271    0.84769929093710    7.20884511264856
O        23.58489951100967   -3.30190649879687    2.42335730758892
O        23.52378202941518   -4.59185544054373    4.25566149848722
N        11.81569978049885   -1.63665888423851    8.00967674478961
N        17.16343475345551   -1.93831768782423    5.34980760708557
N        18.06568018005967   -1.32603890382851    4.69249764126243
C        12.99175929071501   -2.02288333691200    7.67954841856254
H        13.35689326295099   -2.98447726093152    8.05348499177421
C        13.94014802675873   -1.26383196688696    6.91422729044516
C        13.80998628641321    0.16232191652275    6.78324580244813
C        14.90679290493082    0.85550044245052    6.19288530280481
H        14.82951277123426    1.93214607535587    6.13973231724819
C        16.00236603822140    0.20875720783493    5.71156985235779
H        16.82021256016602    0.74997602835485    5.26176120114372
C        16.10146571138725   -1.20133748672269    5.79576748711219
C        15.07617796746843   -1.90131459340528    6.42364486057950
H        15.17467264375676   -2.97278228819440    6.52087089614075
C        19.21529084339052   -2.00024601219086    4.38330695005338
C        19.93775235825216   -1.59317178230789    3.25148090461442
H        19.51080793735903   -0.84323431114235    2.60312724240618
C        21.15675639203311   -2.16030118167445    2.96473684995146
H        21.70970860320800   -1.85489822381342    2.09027058036556
C        21.69725202088494   -3.13295208956374    3.80939446593312
C        20.98778438069998   -3.53147410794870    4.94450570620808
H        21.42338067267342   -4.28483010775254    5.58396278040987
C        19.76388481742891   -2.97726796509472    5.23072670468217
H        19.20594505550316   -3.26290912290358    6.11010804526225
C        23.00857632628478   -3.75799211962483    3.54663352114231
C        24.85854267318776   -3.85691812965720    2.10382795952721
H        25.53874997762500   -3.69253436280500    2.94770262742960
H        24.74908285599821   -4.93899237288995    1.96573240168330
C        25.36987459511298   -3.18767008245189    0.84195842843912
H        25.46409166234271   -2.11638408000265    0.99879313785366
H        26.34169289394005   -3.59577115444452    0.57994006754532
H        24.67852521330985   -3.35914885737130    0.02118167006453
C        11.06483586313476   -2.34128261243634    9.02080520913363
H        10.07178093491985   -2.57166507272290    8.61943022813852
H        11.56690374496890   -3.27220916855028    9.31578441295551
C        10.91477467193721   -1.40108631563515   10.23067383408767
H        11.88988355652012   -1.28369337375306   10.71253448140063
H        10.59647739516841   -0.40407004599493    9.85977504187240
C         9.89131636888552   -1.90174886331375   11.24524130386410
H         8.93284262784070   -2.04152670027534   10.74424308268688
H        10.21131639327334   -2.86743608565471   11.64402575829660
C         9.73187678816157   -0.90382430684445   12.39066770204351
H         9.33003660372430    0.03193050521473   11.99849089805526
H        10.71881669476295   -0.68661338726648   12.80785284500746
C         8.83979516135836   -1.41095632769799   13.52413478653027
H         8.84048567960599   -0.66147272551615   14.31937624980847
H         9.27649275560344   -2.32499419264610   13.93493181899915
C         7.39131490564145   -1.69824120371892   13.12713446356049
H         6.86065017632132   -2.04019988031406   14.01950530358511
H         7.35911597802869   -2.51241924105145   12.40073177273982
C         6.65912703114470   -0.48421809636298   12.55833822867107
H         6.82230711033686    0.37690603996947   13.21045159695750
H         7.05853758319626   -0.23713479091626   11.57301003964387
C         5.16271248448407   -0.74348804631398   12.43353887730812
H         4.71211378653622   -0.86845932876256   13.41625781955902
H         4.67474111294568    0.08647374782973   11.92703298315765
H         4.98120482884436   -1.65047922774440   11.86010100840771

