63
CSD_code = OWOFOX | q = 0 | S = 0 | Stoichiometry = C26H24N6O4S2Zn | MND = 6
S        11.23663990419874   10.26135337267826   13.48324108687879
Zn        7.68520982028480   12.33692193126317   11.77698417340950
O         3.05011375451143   14.61339368081041    8.39494680645495
O         8.40244022342895    6.23286877264176   11.22286776438709
C         8.57314230445130   15.06239925710467   12.84506895374060
H         9.31478231509690   14.44622676690375   13.33297990673050
O        13.31845813684724   11.61970750948934    9.71384148734677
C         9.15145286957590    8.49101613916321   10.72553583778451
H        10.10761362153377    8.16770188915542   10.35213082124324
C         6.98318153923218    8.04478005115241   11.63441941086426
H         6.24330537522588    7.35007720548197   11.99495847892660
C         5.77046063521594   12.35309383419868    9.31411766926933
H         6.15126516392260   11.35324418711390    9.16203056547383
C         6.06398501676537   14.36538053885112   10.35340741663673
N         7.83280830500290   14.44827144108105   11.94125791527976
N         9.12128549681213   11.97363745897511   13.03496944209682
C         8.43019378520125   16.39771601795022   13.17651250162420
H         9.06297581007182   16.83010642211897   13.93337362844707
C         8.83821158810869    9.84533052616057   10.76773251401608
C        11.13997137386380   10.64801908022728   10.17100944823906
H        11.53962222756142    9.66381245801272   10.33941616985968
C         6.67138180034899   16.48446535890098   11.55636025472137
H         5.91549583511001   17.05493092696762   11.04484498388976
C         7.45211827528188   17.13954212439787   12.51406093915876
C         4.60659488029571   12.76145253434597    8.68778447846369
H         4.07011030143195   12.07500054648318    8.05387608725458
C         4.91923571163504   14.87451958732636    9.76317994232456
H         4.56062103132192   15.86929635979684    9.96241548941490
C         8.21770271416412    7.56314284706848   11.18334167923473
C        10.01136114618144   11.23724459689293   13.24780192822514
C        13.95719073426089   10.41390400193971   10.08214387212687
H        15.02461226801657   10.61688054938740   10.01950155944366
H        13.70322773690045    9.60182369985932    9.39387836620103
H        13.69881277439214   10.12827032265944   11.10513002279338
C        11.40676163476865   12.96748196428007    9.65248727358486
H        12.03196391603992   13.80190949003337    9.38146941891534
C         6.76048295916870    9.40389837287305   11.62516319297433
H         5.83137041513185    9.82434014902429   11.98209006381804
O         7.19163380196289   18.44348707808775   12.70816266674277
C        11.98522598854433   11.70888143442635    9.84942650099895
N         6.02249053981310   12.29518390582664   12.73350632704284
C         2.19398608029099   13.80883251468296    7.61352843081626
H         1.35408582869737   14.44748760785205    7.34662239301548
H         1.82968640003849   12.94893970116501    8.18227290357756
H         2.69146944264634   13.46365996651409    6.70191452050691
C         7.91330707030435   19.14098540031964   13.70124967500317
H         7.51563648565784   20.15405164527926   13.69486332377493
H         8.98256865928583   19.16880273868709   13.47175074285016
H         7.76095381298651   18.69694917594522   14.68869385610780
C         4.15684981543069   14.06128578196085    8.91945960513211
N         7.65865512897795   10.28348662369566   11.20637762988117
C         9.66563857307945    5.70609504664261   10.87695252125968
H         9.59483213758069    4.63493904139576   11.05640330979961
H        10.45597423451383    6.12801725022999   11.50394894523539
H         9.89671049039526    5.88123675058192    9.82172794024321
N         6.47931229543565   13.11540941842321   10.12300125404884
C         6.87793887794705   15.13759431386602   11.30674385775397
N         9.26001442943532   12.11458554013474   10.22708212585730
C         9.78456465852777   10.89597165193999   10.35301673970021
C        10.05229118743164   13.10966768372167    9.86274587745567
H         9.57312140432721   14.07185337892753    9.75034885547010
S         3.68794203298271   13.74017074113427   12.98477241666397
C         5.03194722234337   12.91766363574957   12.85709602984710

