63
CSD_code = OWOFUD | q = 0 | S = 0 | Stoichiometry = C26H24CdN6O4S2 | MND = 6
Cd        2.48461990608993    2.40689672314946    6.19570939816120
S        -1.03239430364975    0.21163874671322    4.20861436434160
S         7.06924881836272    1.92081645051283    6.32351263755667
C        -2.05787324037522    1.83247226755202    7.58042309339371
O        -3.39104369138068    1.80246239039670    7.43037839577715
O         7.37023708111650    4.80098919651414    8.90426121298696
O         2.48470462047683    8.78322338625500    5.53256248163484
N         2.27502516175949    4.68742283752443    5.95784383746856
N         2.36355098362303    0.21066152624931    6.93773766509675
N         0.70582135439550    2.11861159475750    7.80538116960577
N         3.54666132539252    3.51528782766783    8.03604006006920
C        -0.10906422549055    3.14047737852180    8.02882051518466
H         0.37361918055974    4.07403839622649    8.29073136335531
O         1.45391315701886   -3.81004690262043    7.03788631507054
C         3.14175083044154    5.42385072822537    6.66257234466313
C         3.26547445896629   -0.72651201977406    6.67288479427183
H         4.25570908167500   -0.36986029538680    6.41766361927140
C         1.67975887944037    9.48300207934049    4.60716829031907
H         1.96083020569841   10.52959792306039    4.70783056000842
H         0.61660346129985    9.36855114196187    4.83715493585998
H         1.87175616020846    9.15242214957662    3.58267878319537
C        -1.20747141656201    0.74166516584398    7.40560665793487
H        -1.60046239950644   -0.21751374103509    7.11804736867395
N         4.44451332977338    2.21881640732770    5.51817232662061
C         0.16585100249560    0.93232211799999    7.51569524983158
C         4.02666420040537    4.67818559216963    7.57935088141633
C         3.20726098558887    6.80179176856508    6.52898946942639
H         3.88476011241678    7.39787505338800    7.11752065089697
C         5.29650032001676    5.13276985153528    7.89192179250916
H         5.69027204868182    6.05046406610699    7.48756431119187
C         6.13327521045365    4.33837872195895    8.68325364406790
C         2.36693478778114    7.44678228928778    5.61565321131239
C         1.12289019861566   -0.16364124326290    7.25685270876922
C         5.56112962102703    2.09286827017578    5.86590799709578
N         0.99464871378193    2.00371105970776    4.76489251949148
C        -1.48235385244206    3.05702468869089    7.93823715318613
H        -2.11754225332602    3.91199196315757    8.10134752266362
C         1.48246763805228    6.66040954812877    4.87575014156443
H         0.81148662108831    7.08701132833071    4.14884306900455
C         0.74961295639968   -1.50228360263171    7.33092525415786
H        -0.25385024917716   -1.76696949828397    7.61764552304910
C         5.61330372198241    3.13914313952758    9.17516266647973
H         6.20053391768287    2.47637047349767    9.78825541480109
C         8.31769630536746    3.93399285145621    9.49610296638621
H         9.26449886687243    4.46955478851687    9.46482587808944
H         8.40298219907741    3.00642078624736    8.92482169643533
H         8.06054913649571    3.71075822506789   10.53589727163133
C         1.48011912655133    5.29271726732269    5.09252639488153
H         0.80779132344886    4.64610929268027    4.54119843081186
C         0.14966883311438    1.22411829268179    4.52015515375102
C        -3.98495412736469    0.63522536792998    6.89527929386333
H        -5.03070248125276    0.88771387813826    6.73109563952214
H        -3.92125254305739   -0.20084393707867    7.59831798275643
H        -3.52113376284221    0.35831325017055    5.94512544612181
C         1.68885553221248   -2.48738342339163    7.03132377292207
C         4.32427109259574    2.78675934458662    8.81996915748728
H         3.88976654058827    1.86174021740780    9.17936384332814
C         2.98603148982862   -2.07581638052240    6.70332455524884
H         3.73340663181833   -2.81555425431564    6.46985669995104
C         0.13976018999422   -4.27070318559769    7.26922781552024
H         0.18511531327110   -5.35236016713705    7.15737409714988
H        -0.55909172490207   -3.85867545528578    6.53594794933487
H        -0.19781236288868   -4.02556370551974    8.28081458349907

