52
CSD_code = OWOHEO | q = 1 | S = 0 | Stoichiometry = C21H24CuN4S2(1+) | MND = 4
Cu        8.30029031432874    3.38901809078466    2.30190488040421
S         6.85287992525429    5.04021796380355    3.81112679352730
S         6.29689543993514    3.08576486703330    0.57622976883878
N         7.94277408061684    1.47854149105991    2.56544921580664
N         7.04284762082316   -0.52116583967988    2.24224273571186
N         9.36315936631823    5.02267938440640    2.08722108070192
N        10.01376490360214    7.12065664190894    2.38639508096426
C         8.40814743342765    0.64552778254450    3.55459827632908
C         9.27581003657505    0.89363205854748    4.61090184917855
H         9.70424881144797    1.87384765833234    4.74771023048957
C         9.55370426015971   -0.15815017531725    5.45676666136964
H        10.22234232589713   -0.00854358798836    6.28979348149969
C         8.98782084589297   -1.42173804281155    5.26420095441307
H         9.23286827109682   -2.21405188506172    5.95382572522817
C         8.12469634040744   -1.68265844124741    4.21999738590177
H         7.69202441370187   -2.66128960806649    4.08644164669418
C         7.84107399909022   -0.62927119485828    3.36194543055107
C         6.26725843823845   -1.57520211578533    1.64629716865127
H         6.34350495161360   -1.53445221090710    0.55991449603471
H         5.21614204120893   -1.49774863081794    1.93509871483356
H         6.65249609626299   -2.53342508878118    1.98793327354717
C         7.13609308516566    0.75834653041901    1.81226637356741
C         6.41429338183022    1.26635888985459    0.61541973312388
H         5.40330216628731    0.85833657604570    0.56069396755029
H         6.95123372249069    0.99895988837048   -0.29859683679756
C         5.03449620722141    3.31919059301033    1.89001411495974
H         4.14514504267900    2.76801152223423    1.58393861958096
H         5.43536137562154    2.89776518567819    2.81258729963776
C        10.38093160100138    5.27610549750765    1.19909460397594
C        10.97308216683423    4.45623114114629    0.24654600788005
H        10.64010513859091    3.43845612838835    0.11869338823664
C        11.98806326258310    5.00141518062648   -0.50933945833690
H        12.47528005138498    4.39914126241046   -1.25982362439036
C        12.40597586931613    6.32301701148682   -0.32883798359630
H        13.20447718703752    6.70669448150457   -0.94410103733671
C        11.82635325408075    7.14901199371333    0.61192604068710
H        12.15846359496288    8.16727496612106    0.73724632970270
C        10.80371718319495    6.60779310036113    1.37860828580914
C        10.07731467869878    8.44937865451442    2.93185844745956
H        10.97802001172185    8.93760632740749    2.56789148131580
H        10.11289334756298    8.41360196144053    4.02120584761717
H         9.21113362438316    9.03901979707975    2.62244753035407
C         9.17083689349749    6.13362826746694    2.76925721741167
C         8.16835685503969    6.30220744661980    3.85423517825818
H         7.69961356357042    7.28712217254992    3.81051210565282
H         8.64127797535332    6.18315658039327    4.83264374946433
C         5.91148991327708    5.66021755547711    2.36091867924936
H         5.59574509108648    6.67768831248784    2.59243273162308
H         6.58741506569299    5.66517444616821    1.50494918900299
C         4.69599303820906    4.79050696706221    2.07724665490039
H         3.98803363016831    4.86994176914221    2.90522711357126
H         4.21285210555536    5.17215067621418    1.17514339918912

