51
CSD_code = OWOHUE | q = 0 | S = 0 | Stoichiometry = C22H20N6Se2Zn | MND = 6
Zn        6.92729724029533    9.96496362405680    7.15464537724185
Se        2.74266963300197   12.14658480302827    6.98204511064978
C         4.26426407685845   11.42468539509546    7.33456703164781
N         5.31249284852909   10.94818743014226    7.55381747609050
N         5.71811931984869    8.36841636602150    6.23778258234980
C         6.07296483855811    7.09914308414265    6.39156885132896
H         6.98888206596097    6.92550117579608    6.93540528992073
C         5.33789688785487    6.04088586979042    5.88383300229877
H         5.67002784405883    5.02647835326659    6.03956705133909
C         4.17734794022012    6.31417971511966    5.17802874913760
H         3.57597686164520    5.51535660561982    4.76976556282408
C         3.80944621849624    7.63890213670110    5.00831372516425
H         2.91638792272315    7.90586799249281    4.46586804571592
C         4.61038001397108    8.62765740164364    5.55544165458840
H         4.34638856260745    9.66907457795980    5.44752872193352
N         6.82357927176911    8.98385613649794    9.19424465356775
C         5.94425392972647    9.45962612141058   10.06786490091013
H         5.31919408177879   10.26550221789807    9.71473718332143
C         5.81292758272294    8.96956116345901   11.35702123054619
H         5.07979936855797    9.39536184942559   12.02387141266213
C         6.63553409502746    7.93258722679906   11.76514546693210
H         6.56230830930331    7.52436025318193   12.76241904992342
C         7.55686055772488    7.43483077757022   10.85855620107228
H         8.22526847824655    6.63086201218246   11.12345910145295
C         7.61176592606508    7.99179146331051    9.59158053254864
H         8.33005528559564    7.62747235781858    8.87221162172974
Se       11.10927930395496    7.77868903347109    7.33260731411195
C         9.58948569266745    8.50250368972659    6.97563368004763
N         8.54275378488591    8.98183088072061    6.75569147987136
N         8.13627175516937   11.56161260368530    8.07115502670262
C         7.78384881081754   12.83127476052435    7.91498963503458
H         6.86832469919571   13.00563704114924    7.37061329985501
C         8.52107160117731   13.88898106216750    8.42080809138939
H         8.19103208333940   14.90380015057053    8.26330355769426
C         9.68123626959805   13.61467379832942    9.12690190118164
H        10.28440089790387   14.41304225488249    9.53342679348841
C        10.04639585652860   12.28954769125340    9.29929994338594
H        10.93893344415476   12.02174468954510    9.84219238348593
C         9.24333071190329   11.30140930225989    8.75420815423770
H         9.50493480691867   10.25963539981684    8.86444446346328
N         7.03206636594185   10.94406870985135    5.11367995437285
C         7.91758075247502   10.47216136574143    4.24420626531306
H         8.54725186854841    9.67182628267395    4.60163916171522
C         8.04930156859491   10.95909549127286    2.95391575297745
H         8.78770503111797   10.53663261072594    2.29076620975016
C         7.22019611573270   11.98857139159995    2.53999480782950
H         7.29353096193425   12.39418121625633    1.54166595879983
C         6.29259038950049   12.48248551003470    3.44230810435505
H         5.61924792190747   13.28076160732311    3.17269432431439
C         6.23795675356121   11.92925573855164    4.71098644609910
H         5.51528339132116   12.29088160742982    5.42737770362482

