51
CSD_code = OWOJAM | q = 0 | S = 0 | Stoichiometry = C22H20CdN6Se2 | MND = 6
Cd        7.05260728383682   10.11843369971005    7.18383952480670
Se        2.47470800901310   10.73366896989813    7.76155261399694
C         4.16343732970341   11.06013728720779    7.62005307133039
N         5.31102717382297   11.27258030333314    7.51165381568506
N         5.69591038489266    8.45362798836058    6.19700000783280
C         5.87737595509525    7.22236479949149    6.66507413902092
H         6.83184231304633    7.03282216193694    7.14086845914500
C         4.92561887795413    6.22246558596360    6.54876262393758
H         5.11751552500316    5.23949697731040    6.95050604817425
C         3.72714611288221    6.51297355264670    5.91547094353581
H         2.95598858652516    5.76300090901793    5.81938948358183
C         3.54430121376709    7.78714510325050    5.40467775288270
H         2.63163144639133    8.06087704036678    4.89987799575892
C         4.55574352015169    8.72023965320344    5.56939655979092
H         4.44365106391033    9.72418328906772    5.18069287715863
N         6.71574808621301    8.96839260685928    9.29474463270625
C         5.56590972660674    9.00799851079111    9.95807353279456
H         4.77985140881442    9.61116747271419    9.52353650064578
C         5.35246299557413    8.32356879310357   11.14493307346712
H         4.39738596548272    8.38874649322364   11.64174965211492
C         6.38415137288495    7.56342765419528   11.67069188643673
H         6.25575457810339    7.01883907514479   12.59456596432779
C         7.58490503352807    7.51638092000427   10.97986659828791
H         8.41643463120180    6.93531674318419   11.34724860071809
C         7.70128844229712    8.23158440892311    9.79882007570315
H         8.61754086964123    8.20429157929878    9.22157033949190
Se       11.63206751670960    9.50621808697976    6.61141201871379
C         9.94354874592136    9.17792720894761    6.75153747676275
N         8.79592338148627    8.96474819626860    6.85822851835763
N         8.41124866760192   11.78300846795063    8.17163503897722
C         8.23846262412682   13.01322959217618    7.69757888517774
H         7.28643407981651   13.20647739881045    7.21838688997993
C         9.19601744222484   14.00783775186475    7.81165117754624
H         9.01122967104498   14.99003440582669    7.40472381361186
C        10.39111402340279   13.71303162174342    8.44930340614646
H        11.16672342433101   14.45860588460603    8.54362907679154
C        10.56471726938983   12.44031124021656    8.96681715220136
H        11.47428914471341   12.16338418701900    9.47544673912707
C         9.54807815296157   11.51265593446666    8.80368956041833
H         9.65287157457091   10.51007610137272    9.19784158694132
N         7.39150871715297   11.26423787986797    5.07119635055653
C         8.54098822934760   11.21842264873902    4.40757424032437
H         9.32171889809964   10.60592526826465    4.83852777852064
C         8.76045314235371   11.90748858702868    3.22453380487793
H         9.71498297808202   11.83659740328403    2.72745014913171
C         7.73546205361886   12.67961586958996    2.70314211446711
H         7.86883215578146   13.22854916940853    1.78254669889123
C         6.53491984778259   12.73274506141072    3.39397110223816
H         5.70851599144097   13.32299909389212    3.02966600915478
C         6.41210068141093   12.01177897738372    4.57089981929528
H         5.49565368030949   12.04286238469501    5.14769381845266

