29
CSD_code = OWONAQ | q = 0 | S = 0 | Stoichiometry = C13H9IN2O3Ru | MND = 6
I        -0.31882972982965    2.09985898575954    2.41397817235081
Ru        2.21765298089879    2.90109936009408    3.04458579608605
N         1.86817975740387    4.75372390035008    0.81913077459546
N         2.51952513057378    2.95721917173149   -0.16793347339020
O         4.61498324105630    4.56141630829401    3.70102414322163
O         1.48893326714847    2.36128368460084    5.92222985201319
O         3.36471301097185    0.11285264090262    2.70801727660682
C         3.73430780999550    3.87795082044194    3.44225257780130
C         1.80063534093466    2.55749799541943    4.84512237468613
C         2.89834158749623    1.15195190107541    2.79234379586679
C         1.56011187064000    4.90074086154237    3.16056070177860
C         1.16747405037247    5.65009739210355    4.26704690279690
H         1.20775481729176    5.21535643460929    5.25885841762883
C         0.71047500527043    6.95354145596821    4.13770969809916
H         0.40591919599258    7.50041104350900    5.01764049502113
C         0.64427674411491    7.55603963284082    2.89404692188383
H         0.29133838086457    8.57127585897316    2.79715441894053
C         1.03076997494523    6.85136266442188    1.76856240453985
H         0.97984905065332    7.31296171676226    0.79409658643573
C         1.47979330965744    5.54836551490172    1.91647947830484
C         1.81451108628353    5.00594332907581   -0.52272729174859
H         1.48909053669551    5.93673307928692   -0.93646577208261
C         2.22383072792233    3.87266439815095   -1.14253826248710
H         2.31979125599965    3.64901278230993   -2.18480892884930
C         2.30738882867491    3.49517421996045    1.04721827432458
C         2.93005822200519    1.60138523712580   -0.41905167834907
H         3.87211113118350    1.38662829607097    0.08952136563270
H         3.06324027447554    1.45805184824185   -1.48931661559217
H         2.16587314030681    0.90549946553254   -0.06303840614726

