31
CSD_code = OWOPIA | q = 0 | S = 0 | Stoichiometry = C16H9MnN2O3 | MND = 8
Mn        8.30109829135788    1.86396706339576    2.03358017442639
N         5.96500169285633    2.39174925934317   -1.19772682672583
C         9.07852566442500    1.54655545837916    0.45554057807502
O         9.48586214692508    1.34699133484443   -0.59605151671476
C         6.14124248301233    3.16044827862955   -0.14161648879628
O         9.97028442127604    0.00807632157471    3.57671731955277
C         6.02461265639283    4.57380626472586   -0.24434104709994
H         6.17275777557584    5.21475897016322    0.61500780278576
O         9.93207370108693    4.23292190203421    2.60428417855431
C         9.32518219258772    3.28351086682596    2.38467915912898
N         5.73951567259682    5.17168394691792   -1.36329659127068
C         5.56109313849598    4.40112570028424   -2.45917660112684
C         5.25721034252034    4.99625419707960   -3.69755952855231
H         5.16955072438879    6.07066294260125   -3.74001264922260
C         5.08585513056079    4.20883383061637   -4.80253511080389
H         4.85419164019946    4.65794201784313   -5.75701509365166
C         5.20939311160266    2.81081024754326   -4.71731683582910
H         5.07246625790232    2.21670129027526   -5.60889142752684
C         5.49938273141810    2.20231738891918   -3.52830380641477
H         5.60034283518486    1.13155411601696   -3.44289397955525
C         5.68071440575193    2.98541101096902   -2.37049670502911
C         6.42942650222076    2.49030288396105    1.12175595740030
C         6.53540138695931    3.06839584356837    2.41805621014626
H         6.42612380625367    4.11707492794623    2.66015938323150
C         6.61081452563897    2.02212197612443    3.36514860947143
H         6.54250894322739    2.14298194762734    4.43831225250386
C         6.52941399478593    0.78812993882044    2.66626156859874
H         6.41499601586504   -0.18642561700678    3.12227380639770
C         6.43566453219775    1.06909640810128    1.29098810091911
H         6.22146770378201    0.36347721574053    0.50127411799595
C         9.34882557295077    0.74486206613429    2.95349498913135

