40
CSD_code = OWOQAT | q = 0 | S = 0 | Stoichiometry = C17H18Cl2N2Pt | MND = 4
Pt       -1.78160092614214    1.01355687016739    4.73057822846876
Cl       -0.03923998355507   -0.39458156219303    4.85341488145660
Cl       -0.39476464707028    2.37302521758509    3.60555186636422
N        -3.03575147135746   -0.30881884891582    5.50124997886387
N        -3.53552378068732    2.10760609101979    4.61806598249512
C        -2.71343603162192   -1.44601492486928    6.11720008929009
C        -3.64910762687966   -2.41356139853555    6.42418119353282
C        -4.97662302963900   -2.19852270387299    6.07527782871218
C        -5.31562545341932   -1.01257038422728    5.45242166822880
C        -4.32603729024657   -0.06947893486361    5.17850802383477
C        -4.59252431099438    1.25466810738868    4.62223662421933
C        -5.85011578298678    1.66394948615921    4.19421504786781
C        -6.04302316062343    2.97840131477551    3.80491425775638
C        -4.99430091158240    3.87172599753712    3.92702566381544
C        -3.73971925590626    3.39669464806306    4.35089444468917
C        -2.63466809281759    4.38675332263483    4.52925129888072
C        -3.11979007997143    5.79551187068651    4.21347467688255
C        -4.47203939641787    6.01974476668388    4.90814109897394
C        -5.10428150027179    5.33554007995117    3.67887812753416
C        -3.87243136759445    5.81655651931086    2.85962170880106
C        -3.36994842313717    4.93033310015676    1.72888068407877
C        -4.05710377916051    7.22997651488916    2.31752770156436
H        -1.66487557171840   -1.57837623756968    6.34804815061422
H        -3.34289659660876   -3.31878502434397    6.92217208132520
H        -5.73225769688770   -2.93788568285817    6.29070885412569
H        -6.34102118153154   -0.81825956120146    5.18504218384643
H        -6.66903125073744    0.96559617825113    4.15726519556297
H        -7.00631441443314    3.30937182105796    3.44712936952718
H        -1.78930900090236    4.10933579426603    3.89101440259322
H        -2.26885350412048    4.32215749845915    5.55860448598873
H        -2.33186970164805    6.53159779309474    4.36406186230472
H        -4.74834684142981    7.06502601054849    5.00421303469897
H        -4.61871634352470    5.51973084841200    5.86431280183057
H        -6.09885822772961    5.63707729775451    3.35273283116939
H        -3.27687367207583    3.88755197980408    2.01398519478499
H        -4.05317953106206    4.98969442956982    0.88329208731513
H        -2.39112912245668    5.27517339111215    1.40384619384791
H        -4.39283044941703    7.92462731873582    3.08144564141301
H        -3.11221935100215    7.59424917172283    1.92003430152355
H        -4.78846124065083    7.23022182364644    1.51138025121888

