51
CSD_code = OWUHEU | q = 0 | S = 0 | Stoichiometry = C18H26HgN2O4 | MND = 4
C         8.24435137226828    8.88916308620153    3.14258999433495
C         8.42440419841675    8.93441968617631    1.76255474675445
C         8.38560970654950   10.15675895729666    1.10173422692138
H         8.52993200668961   10.18964063559960    0.03091058028049
C         8.16287225794664   11.32592397041455    1.80490667384550
H         8.13050515311538   12.27200509013478    1.28548196940475
C         7.97301132416999   11.28019650009505    3.17345034762666
H         7.79420309337972   12.19269079843023    3.72472715698090
C         8.00851947882664   10.06583933486097    3.84893398452803
C         8.69985090550549    7.67010306875712    0.98011472898083
H         8.61080526112993    7.87402834205861   -0.09939353153471
H         9.73046660699439    7.35511870104601    1.18051572524810
C         8.26955149700482    5.28427473026107    0.89659410458752
H         9.27869977243270    5.09241033182976    1.26776962666332
H         8.27896046153626    5.26130358596126   -0.20612886025021
C         7.32033072498769    4.20311139989301    1.41477794875376
H         7.60640586368765    3.22155105194782    1.03323049839403
H         7.35370287521627    4.19618410543822    2.51592324614786
C         5.55291854988055    5.68798917640675    1.42484677140865
H         5.54791415462524    5.71709248077247    2.52808381565645
H         4.53405915847255    5.80372956986406    1.05136793914762
C         6.45478491721907    6.80647242822583    0.90432702784060
H         6.43006797558163    6.80829428774300   -0.19857718938094
H         6.10136144133866    7.77282614453824    1.27017975182017
C         7.82443015443447   10.03897209659392    5.34946777626317
H         8.79990893192800    9.86237437689175    5.81743400757885
H         7.45322857825733   11.01724868430243    5.69627956068127
C         6.98347483213811    8.70990191956191    7.19734040786595
H         6.64849277479567    9.59620850618258    7.76255794611299
H         8.00919119438153    8.46832733379330    7.48519138375268
C         6.06848858787443    7.52868785626516    7.52394014388457
H         6.43688755205255    6.63467273753872    6.99609944675323
H         6.04991014813824    7.33847939198549    8.59836799997996
C         4.67262685391648    8.05887071255637    5.76292692142011
H         3.62412506931827    8.25924593737262    5.53557992313859
H         5.01276752415482    7.17734048399051    5.19239176328430
C         5.54919272166760    9.25504426522180    5.39379508764049
H         5.49626828387598    9.44049763329425    4.31884094034732
H         5.18851345175808   10.14851015466311    5.93134115959640
C         8.05672819244456    4.55385460528815    5.45815719331099
C         8.04725719079359    3.21831772248141    6.18154368575611
H         7.90255032894659    2.42809241192976    5.44763916991987
H         7.21776519751926    3.19119362154430    6.88297661272589
H         8.99126708438053    3.06948107081463    6.69656765970943
Hg        8.06036933683682    6.97173161113236    4.14329995642163
N         7.81523374314570    6.58217271704090    1.38436657940115
N         6.93137065653989    8.96081793264264    5.76109350570766
O         6.00196030246968    4.43266908688738    0.97949456090481
O         4.73993171554608    7.79407074163965    7.14178716699127
O         6.97259772986718    4.99879523434678    5.01725622034555
O         9.14217310579391    5.15679369013503    5.32314193627796

