45
CSD_code = OWUHAQ | q = 0 | S = 0 | Stoichiometry = C16H23ClHgN2O2 | MND = 4
C         0.15846537112217    7.92498542589621    5.56954124713265
C        -0.56087940531741    7.60698911534748    6.72056110514653
C         0.10135271613009    7.09960490071658    7.83286601679094
H        -0.45999936637941    6.86266623961095    8.72577624940993
C         1.46703021840575    6.89064582665280    7.80110835095136
H         1.97420970686786    6.49040868185898    8.66618863107901
C         2.18103371565443    7.19470381873809    6.65756441698627
H         3.24895856109739    7.02964562337453    6.62854300560219
C         1.53715424139388    7.71896378553278    5.54244318219220
C        -2.06477129946896    7.76662962978302    6.77593680765342
H        -2.52153151199908    6.91808089229370    6.25296982224816
H        -2.39938655676625    7.73333320107237    7.82585006396308
C         2.36144903589037    8.08600941383907    4.32743067180102
H         2.52251918939759    9.17054284733680    4.33179887343135
H         3.34872438275645    7.59970204872206    4.39251070950562
C        -2.17684220837125   10.16483760366714    6.91550625759430
H        -1.10007754276592   10.17548777909470    7.09776217227545
H        -2.70531486554591   10.14366284406910    7.88337180040650
C        -2.59093411327736   11.41829717297390    6.14548035431442
H        -2.38486309034343   12.31881596643939    6.72644791637563
H        -2.02409782465976   11.45640414294347    5.19688236445385
C        -4.33154579367927   10.27571710474970    5.14265506653899
H        -3.82279951324612   10.28419443884482    4.16532899267402
H        -5.41036758841954   10.33447769085594    4.99150302829124
C        -3.95681761167962    8.99348270873497    5.88715670848052
H        -4.50885167365978    8.95198959840451    6.84106913329885
H        -4.22814521958608    8.12662216842721    5.28060654761255
C         2.31158862403500    8.36503428710078    1.91893713027937
H         3.34970436695587    8.01390681389889    1.79469019295878
H         2.31506072898337    9.44942683207201    2.04894365111659
C         1.50301188814396    8.00409868303092    0.67198153855596
H         0.48489943048619    8.41250831159085    0.77546979301708
H         1.96994856147135    8.41479829353506   -0.22434164097690
C         0.87686362189328    5.98614436890478    1.60954192145320
H         0.87247402799337    4.91465412734623    1.40262329742177
H        -0.16261727598679    6.33621387993465    1.75234653808765
C         1.67625579662213    6.29615001492622    2.87436979094743
H         1.21387557590782    5.81391813839526    3.73820475139035
H         2.70371256434264    5.91328118538225    2.75556759839418
Cl       -1.92134423675958    9.75896654968422    1.90910537094884
Hg       -0.86826711921649    8.75709154226054    3.81088245769948
N        -2.51648562841365    8.98810542275009    6.12037991673156
N         1.68787113647083    7.74137629386027    3.08112643123298
O        -3.97007484217888   11.41819386089596    5.88244749674056
O         1.44435082569852    6.60903072445173    0.48686426779042

