63
CSD_code = OWUJIA | q = 1 | S = 0 | Stoichiometry = C27H29BrN5Ni(1+) | MND = 4
Ni        4.68847274121700    7.20213137367126    4.82176684240988
Br        4.73037963537754    6.99008167808458    2.66076795152246
N         7.58430989379087    8.29204583994975    4.42271691671033
C         6.42988645780432    8.06204169089175    5.04529732673202
N         6.52137477353545    8.64862119568878    6.29745381588593
C         7.75325780651512    9.26718456425022    6.44297211882248
C         8.36288620631098    9.98314382621975    7.46306075426195
H         7.88694225368730   10.17204484945695    8.40948675496138
C         9.63866509546370   10.46146495225381    7.22976058717760
H        10.13499932644472   11.02341461411106    8.00480394023841
C        10.29878589637588   10.23840109696442    6.02336306858193
H        11.29226688461280   10.63372922819758    5.88563483713217
C         9.70559764969492    9.52111653102629    5.00392246118000
H        10.21904706158112    9.35095101134446    4.07222381617024
C         8.42484632541825    9.03777023829341    5.23013454485552
C         7.96303528933947    7.89038871309413    3.08806944248175
H         7.40456414919134    6.99528447174016    2.81315307836366
H         9.02788580845288    7.64832838006695    3.09780287483880
C         7.67739328836078    9.00018628324441    2.07373627299647
H         8.27793041537591    9.88231048939564    2.30702116350983
H         6.62397257893011    9.27645351650466    2.13799180613609
C         7.97448148655912    8.52514081610633    0.65433982825025
H         7.35411341377600    7.65399463895549    0.44023407793548
H         9.02207789219704    8.22706626264993    0.57845205666000
C         7.67901757252288    9.61737876840146   -0.36470170834503
H         6.63123777710399    9.90202657137023   -0.31886321044564
H         7.89353632403298    9.26331584254600   -1.36869583934191
H         8.28683940648192   10.49932109020839   -0.17527862708528
N         4.50461814817984    7.70903656585436    6.60419298400315
C         5.44312780904915    8.48838805516034    7.15022741284630
C         5.26276336625291    9.03349803569982    8.41431426317513
H         6.00286445261275    9.66743670555140    8.86555774738651
C         4.07911234624822    8.75170526238798    9.07881079768860
H         3.90830319357492    9.16907769093831   10.05821946775350
C         3.10553310503365    7.95308086050523    8.49842173569887
H         2.18176773954912    7.76123011148663    9.01137381831028
C         3.35785060030065    7.43817208343770    7.23416001718913
N         2.01707378274200    5.59538073793639    4.61074421834064
C         2.95106680115221    6.36790910873235    5.16526318146754
N         2.53269743148235    6.64464678306577    6.45578045049240
C         1.32159363838470    6.02008696964046    6.70645226839367
C         0.48990706263455    5.93917626939212    7.81403799519884
H         0.71487398297550    6.42263137630006    8.74869604097474
C        -0.66477327132621    5.19034654216613    7.68933367591758
H        -1.33004976948515    5.11061994538695    8.53415817618982
C        -0.98937001712593    4.53511155469872    6.50353413716605
H        -1.90130894124472    3.96259576311795    6.45061553987131
C        -0.16412299536430    4.59920294294362    5.39931772486470
H        -0.41905294320495    4.08025366104873    4.49042774874572
C         0.99887586137112    5.34828474386046    5.51434162702951
C         2.07022556183454    4.99910774082091    3.29434545852546
H         2.37322914112471    5.75750733195798    2.57123282182260
H         1.06970405624366    4.65140401582107    3.03837650906169
C         3.06182040828322    3.83327852142963    3.26113831690007
H         3.19427579766600    3.53530997385018    2.22145063474269
H         4.02979774860295    4.18424971701164    3.62873091593544
C         2.60163660293708    2.63290599199245    4.08430403907336
H         1.63556958574752    2.28508305032452    3.71191723202321
H         2.47034649604144    2.92194583116891    5.13110243371136
C         3.60803241069752    1.49203290409822    4.00314520052318
H         3.73469262264434    1.17042845498360    2.97274653620366
H         3.26844210343883    0.64207766919389    4.58895265339699
H         4.57677267079175    1.80725849334753    4.38394926678106

