73
CSD_code = OWUKOH | q = 1 | S = 0 | Stoichiometry = C35H29N6RuS2(1+) | MND = 6
Ru        2.25663694385746    0.61482209399052    5.10063816561164
S         3.40644288538851   -1.47387148328371    5.69699626029023
S         1.47328684160690    2.55546923121272    3.81435752444152
N         4.94829350514154   -2.80813269744534    4.00108144320092
N         2.17758615284160    2.99692381979596    1.29615496724091
N         0.57044602988783   -0.38573568828934    4.70024221819967
N         3.64655366786123    1.71365214343246    6.02997522952106
N         1.34016879472086    0.93632595879477    6.71531017516222
N         3.19147337263303    0.27779787018703    3.42296414327570
C         4.79347656459134   -6.26082850144862    3.97641178360907
C         3.99636664565382   -7.30205970807908    3.53117794174276
C         3.26703178354413    2.11800881842199    7.26935288734672
C         2.29435006443323    2.19921623503392    2.35536124966444
C         3.11627605374730    1.04310152462587    2.31036372354658
C         0.10638786041830    0.42854148937869    6.87983109145614
C         3.90657210041431    0.45017200975001    1.28822234038767
C         4.17726219490367   -1.74020989898462    4.19176500147463
C        -0.59665307833094    0.65849958616019    8.05880571978811
C         3.98811814267356   -0.78337069776295    3.16094206264137
C         1.23381850855239    4.08541428335518    1.16240166795445
C        -0.94776273581660   -1.72586658219812    3.43874213753137
C        -1.84038263525998    2.21207092344078   -0.00203541604908
C         5.73097257768265    2.83567457073239    6.32208490276195
C         1.27428306675801    1.93467724788045    8.86732204813593
C         4.21700113329454   -5.08477647442298    4.43387499023278
C         5.35433307167758    3.25515379470246    7.59151814148877
C        -0.76667032010153    2.62654445496212    0.76423677548784
C         4.84817436250932    2.07111431741646    5.58311464318814
C         5.07060693621675   -3.93151983466782    4.90577298633305
C         4.45178929977726   -0.69220672130527    1.82016167676887
C         0.05152709602638    3.66065882496555    0.32386051706600
C         4.10856279601613    2.89066709000023    8.06630232465794
C        -1.56348797387246   -0.98051350266345    5.61664546135203
C        -0.21648647969405    4.26892340310706   -0.89376588199676
C         2.61868761571108   -7.16986200476237    3.52949665757544
C        -0.33157675672568   -0.33730414954870    5.71475967675046
C        -1.87867202509235   -1.68332373740592    4.46918841007885
C        -2.10737628584461    2.82777509603088   -1.21398367714195
C         1.93292053311368    1.67452424768495    7.66937556941674
C         2.83256496219092   -4.95653716239440    4.42798291009144
C         0.25508330424514   -1.06523957187194    3.59938320649297
C         2.03787833113095   -5.99440508067310    3.97730838082853
C        -0.00019012459439    1.41856696521517    9.05458742401222
C        -1.29594039477942    3.85752466154903   -1.65732271251937
H         5.86853345251861   -6.36914011556228    3.97690650827575
H         4.45329011095659   -8.21613828568526    3.18455927905662
H        -1.58597487714892    0.25653905608284    8.19988191274286
H        -1.14915815101263   -2.26173055757948    2.52563435216316
H        -2.47339252671404    1.41061442689694    0.34885558495509
H         6.69243739724766    3.09598593839318    5.91089942742409
H         1.74075930631151    2.52575586633486    9.63750714529592
H         6.01841765149627    3.85243233966517    8.19557231330914
H        -0.56353726467069    2.15247699212034    1.71424809183764
H         5.11085810408544    1.72746782070543    4.58871682939052
H         3.78476360656470    3.19883624831573    9.04672775958728
H        -2.26243204866501   -0.92726951982578    6.43497672150123
H         0.41430267840370    5.07342548443570   -1.24323185097121
H         1.99806686842364   -7.98185919636162    3.18290815189269
H        -2.82741286266264   -2.18754649751279    4.37772050917313
H        -2.94770280649695    2.50652451285683   -1.81000083069302
H         2.38019638540798   -4.04272170080948    4.78639016440969
H         1.00223259391399   -1.07882864112628    2.81343623157123
H         0.96303426990436   -5.88884297095305    3.98080960909342
H        -0.52775511956544    1.60885349351100    9.97531613633765
H        -1.50095406419204    4.34130500579378   -2.59996920858567
H         0.90834345115923    4.36862737348829    2.16617556209513
H         1.74409943730243    4.93321379734308    0.69864113864529
H         6.12144729422847   -4.22793455477982    4.94932175974508
H         4.74964216867725   -3.59850914740532    5.89536225619884
H         5.32645902491021   -2.94414710099351    3.07317376099509
H         4.04947173835671    0.82286846969102    0.29264710694123
H         5.10215429292222   -1.38299401142227    1.31986556548547
H         2.63627549922242    2.70107830976955    0.44488126302030

