53
CSD_code = OWUKEX | q = 1 | S = 0 | Stoichiometry = C23H26N3Ru(1+) | MND = 9
Ru       -2.65665592547814   -0.40558812381881   20.95866901110075
N        -1.46039981050784    0.86553017154770   22.01662502860142
N         0.90111561236058    3.72692674223032   23.85921457578508
N        -1.93018406994243   -1.85588409970189   21.94309292857137
C        -1.81900489011568    1.41045424390330   23.18014475734580
H        -2.74846717873746    1.06013257045254   23.61189559620766
C        -1.07067167891778    2.35664443675204   23.83413749161486
H        -1.40855690133026    2.76511556995275   24.77254972292855
C         0.14326701322558    2.78698136213558   23.26673076754095
C         0.52507659990134    2.18944127108316   22.05880069670489
H         1.45632509764285    2.47329497789890   21.59677905965315
C        -0.28035058729052    1.23795856927567   21.45977191032893
C         0.02695624224791    0.50973156231622   20.23505607658384
C         1.17856597118137    0.67447500972893   19.46620897164325
H         1.91323710195819    1.41908752985222   19.73115783681629
C         1.38095999855529   -0.12305979263192   18.35714896969949
H         2.26810915089167    0.00398476901952   17.75637465536497
C         0.45298439209420   -1.09727746318431   18.02361687655895
H         0.62363071020565   -1.73250722279240   17.16723860841885
C        -0.69560349690769   -1.26035118391692   18.78570402300705
H        -1.39745898473875   -2.04014402904132   18.51917112744661
C        -0.93476096066840   -0.45140519141923   19.88170433082712
C        -3.77956386481223    0.44763637210402   19.16119988156341
C        -4.03683262149095   -0.94864156122405   19.24884121885149
H        -3.90165634276043   -1.57164771890435   18.37184070888163
C        -4.56757873022357   -1.49985993085901   20.42639313970622
H        -4.82124929092890   -2.55688768339834   20.44771675122467
C        -4.96531128497167   -0.67776258477028   21.52249586881433
C        -4.68897780936705    0.68574925629218   21.44042957964365
H        -5.01545131093449    1.35594699817136   22.22624086779793
C        -4.05869046071644    1.23868595110695   20.29056309470959
H        -3.93463102763566    2.31688468408503   20.22752683626774
C        -3.32017611723153    1.05530316384699   17.87141710351882
H        -4.15803337196725    1.10057166359487   17.17421390187502
H        -2.53441316788794    0.45515999856891   17.41565389757093
H        -2.94418599738653    2.06449350182308   18.02331270646907
C        -5.70561734165619   -1.27827506024107   22.69381541830730
H        -5.71526381450164   -2.36701734331457   22.56771170936237
C        -7.15549523122239   -0.78355624162498   22.70035932731333
H        -7.19902507290228    0.29328725434917   22.84599686760595
H        -7.70484551109203   -1.26074101487405   23.50737305849086
H        -7.64728467693078   -1.02444023825369   21.76050829429742
C        -5.01371906648545   -0.96203970992880   24.02199058921648
H        -3.96133995541730   -1.24659570681695   23.97949449571366
H        -5.48782156984929   -1.51674626275696   24.82726752278039
H        -5.08642981765146    0.09701337841196   24.25908778952072
C        -1.51019444405040   -2.76738726369494   22.51758600380173
C        -0.97869130289773   -3.89397085465022   23.22085770905307
H        -1.48938773360376   -4.80322765149031   22.90391763585332
H        -1.11147405600286   -3.76621329193122   24.29532403582313
H         0.08469022098021   -3.99007692379514   23.00103903605294
H         1.77706014775513    4.00694837772056   23.45630312315340
H         0.62627721821301    4.12816476281394   24.73752880401355

