38
CSD_code = OWULEY | q = 0 | S = 0 | Stoichiometry = C12H19Cl4N2Nb | MND = 7
Nb        7.81958677432757    6.55724503095596    5.38236052578309
Cl       10.03107943738976    5.87789360407496    4.90714761586422
Cl        7.92902665578581    7.39267411224392    3.17568694078754
Cl        8.77883171054586    8.31580670750389    6.61273304215541
Cl        6.57567288781590    4.77422090387026    4.48848576578298
N         5.96424939657750    8.44195512322694    5.19145750654017
N         8.38838987964404    4.59269561369677    7.06947634527895
C         6.34162285495174    6.45592674191763    7.08458321538365
C         5.48097106901420    7.51606374400249    7.38827682333437
C         4.56281606151871    7.45529631373197    8.42873549901269
H         3.91890186743956    8.30126498380083    8.62267125137913
C         4.47624163961181    6.32352550655624    9.21600721587792
H         3.76575916504185    6.27284411493763   10.02686056715187
C         5.31403093562146    5.25802527102688    8.94962034221170
H         5.26159536281394    4.36295331750700    9.55294629375182
C         6.22382313069979    5.32712315221006    7.90228284178172
C         5.59366469801973    8.76675249677276    6.56850271487477
H         6.39258155703418    9.38395456480586    6.99618073727176
H         4.65715787981185    9.34450330964868    6.59147695287940
C         6.36261188385340    9.67051550308091    4.51122758869291
H         6.55117658938070    9.46847174246737    3.45907293317231
H         7.27861593397340   10.05152070065073    4.96436045570029
H         5.57604594052832   10.43090369244548    4.59012641644351
C         4.83021884242150    7.83633546881512    4.49465416964095
H         4.00252900701636    8.55119152657566    4.40051343589996
H         4.48537215419495    6.96127727114813    5.04730487258997
H         5.14412121640164    7.52262194241462    3.49857788678925
C         7.10015461712488    4.14804566325637    7.60056869216507
H         6.60726186715753    3.54460858856362    6.82924211653619
H         7.24534124213332    3.52068395430780    8.49322646913041
C         9.08564669301679    3.44024120612432    6.50697225029834
H         9.16759891896847    2.63608000798171    7.24854545963778
H        10.08554517970917    3.72903034063630    6.19034826677531
H         8.53522780083100    3.07515281284679    5.63902816791504
C         9.19501225732039    5.18576007754283    8.13528007980774
H         8.63987553086701    5.99813782014234    8.60627434093770
H        10.11503780785031    5.58816142380374    7.71009959228920
H         9.44980355359274    4.43633564470045    8.89578460847508

