67
CSD_code = OWULOI | q = 0 | S = 0 | Stoichiometry = C24H37ClN4Ti | MND = 7
Ti        2.92019205086771   13.98864901185662    8.61004410022982
Cl        1.43554262175312   15.40702619736533    7.48659736065858
N         1.66152170998924   13.85771564341087   10.31039043945965
N         7.09056742906920    9.90930260021012   12.71575939824769
N         1.84055770392334   11.97823570853619    7.71580995645560
N         4.52673958734153   15.74900650041091    8.32178286113139
C         3.99576162212117   12.61617040918714    9.75679380903743
C         3.35257646971066   12.21562661046376   10.93687585626654
C         3.88720200625450   11.26508556482693   11.79988451338033
H         3.35078050458574   10.99611711674053   12.70306112483789
C         5.09776643958636   10.65618164528340   11.51400605250861
C         5.75483693721340   11.01886573537087   10.34470964494708
H         6.70005509685869   10.54890713015588   10.11475739321098
C         5.21375865450859   11.97248975556026    9.49859023573015
H         5.75789571261370   12.20747755409317    8.58783745062495
C         2.01020475304441   12.82932316683452   11.27970565290923
H         1.23889635629606   12.04777870445145   11.28711133083579
H         2.03911541393334   13.25694663419816   12.29972783672999
C         2.57444265837082   14.97889867868635   10.37171330838524
H         2.02830094878502   15.92566285125210   10.32125545617903
H         3.20598070324221   14.95362768998593   11.27056659876500
C         0.25513636999784   14.22828635184254   10.37764855660042
H         0.00758427870540   14.68078594747501   11.34977325139106
H        -0.38371181059736   13.35175395479960   10.24007548539054
H         0.03490415963755   14.94727642993562    9.58504611917490
C         5.69394138736965    9.62053061041247   12.42790316108638
H         5.09338702827561    9.54850493783947   13.35467347210637
H         5.65764936620373    8.64442032458686   11.93085477024978
C         7.23096692001567   11.14442716433362   13.45643760920104
H         6.76405011789500   11.95088315810261   12.89354023840083
H         8.28983237968423   11.36882567325192   13.57843762901090
H         6.76473078475687   11.09446237839540   14.45469186244784
C         7.72975646598209    8.81032164101280   13.40394535358729
H         7.27500943946800    8.59635926021997   14.38573125209006
H         8.78132212479149    9.05058031288545   13.55627566276268
H         7.66468183616816    7.91306428301407   12.78935240429780
C         3.96971082010472   13.52403259851836    6.93404481500785
C         3.82847023672522   12.27504691807244    6.32549635134538
C         4.45559406979224   11.97349135883793    5.12398005757841
H         4.33026911124961   10.99807989143300    4.67108117931270
C         5.24449067043781   12.92711932354398    4.50134666114253
H         5.74289255205992   12.69291118674065    3.57149509685398
C         5.37421073397991   14.18820195969234    5.05939233712791
H         5.96439200577247   14.94442416171526    4.55790734642249
C         4.73130536023590   14.47589055523210    6.25558042219481
C         2.94920282359656   11.28148555292789    7.03999679628199
H         2.55398817002664   10.52486183927311    6.33986015963052
H         3.54209949722299   10.76320873239815    7.80424221582719
C         0.88547205779965   12.42397256936190    6.70104659147585
H         0.45266816375836   11.56442912630475    6.16399496011686
H         1.38758600610152   13.06944534999944    5.97854425074279
H         0.07824230907863   12.99024728685109    7.16918607466122
C         1.16634279926181   11.02604888643428    8.59124588574297
H         0.29716405735533   11.49469717466952    9.05287530551339
H         1.85329412225783   10.68522631710210    9.36624773659815
H         0.81686687045121   10.14769850711874    8.02500023589373
C         4.73375110451787   15.84961677297334    6.87021063132989
H         5.66108142970938   16.40322117379858    6.64446554284896
H         3.89021344534149   16.41018477446614    6.44707071569425
C         5.78181000070425   15.33730133218869    8.94892941465540
H         6.15009925221093   14.43269759273188    8.46654112619925
H         5.61778276722312   15.12932865384439   10.00790376059230
H         6.54398718808671   16.12534878450970    8.84968408573540
C         4.15908808130131   17.06959421854276    8.82743256722097
H         4.88246302825559   17.82956301243635    8.49579552442254
H         4.14487474257910   17.06213015120731    9.91630048816812
H         3.16935029439489   17.33741690009835    8.45683445535145

