79
CSD_code = OWUZEN | q = 0 | S = 0 | Stoichiometry = C46H28N4Ni | MND = 4
C         9.97897118554379    5.03675741825702   13.51349903023816
H        10.63881532657718    4.65909334451348   12.75168505695482
C         9.00312447320917    6.03312353736275   13.34269047771902
H         8.81026550280666    6.57306521494202   12.43609438084510
C         8.35848903792395    6.15266778772424   14.54779004906972
H         7.54258447401861    6.80117601292909   14.80192002037814
C         8.94959313351205    5.20363359808499   15.42568620669886
C         8.43840697566098    4.84259827552708   16.67699808969505
C         8.91489087121064    3.72324712612794   17.36689882903558
C         8.48111296738499    3.12555743104871   18.58361533421982
H         7.68277767517140    3.48973269275199   19.20133783387875
C         9.26696332930536    2.01786005931641   18.79604831666986
H         9.21743325773811    1.32890214541885   19.61671250533067
C        10.17715413248303    1.95656101226406   17.71691813045207
C         7.30633628577259    5.59828325658572   17.24805353959793
C         7.53975619962714    6.82729377994845   17.87968557212562
C         8.83879789432959    7.38983805787085   17.98006056533127
H         9.66986009666170    6.85243907621297   17.54774727642385
C         9.03803999955713    8.58127597796352   18.60735467870935
H        10.03068472455093    9.00160143867394   18.67536069657251
C         7.95508561732542    9.28152385852196   19.17940332413665
H         8.13884575467963   10.22423281097742   19.67372509210587
C         6.69570158012340    8.77151457528622   19.11054387371840
H         5.86018006696722    9.29810585357463   19.54952339912106
C         6.44302331499387    7.53426364880862   18.46396169419499
C         5.16314725895561    6.99302144824535   18.39176056773209
H         4.33675972247549    7.52869747522727   18.83824078518033
C         4.92240131774129    5.77785035275699   17.75762891308593
C         3.61865428167009    5.22494052754357   17.67181654489076
H         2.80148528482216    5.77174351571140   18.12055809222644
C         3.40022322166054    4.04070835721900   17.03857543566807
H         2.40431595774984    3.62700822294001   16.97670367084233
C         4.47413975319695    3.34187478372824   16.44857037057211
H         4.27957411000334    2.40810386666613   15.94179217752976
C         5.74050699372206    3.83691379439049   16.51047581454333
H         6.55850205752160    3.30298314960516   16.05030112900092
C         6.01289633613041    5.06236668846671   17.17258635073563
C        11.27917026285262    1.15072257233589   17.28109871442656
C        11.91065731897351   -0.06456034327619   17.62975288157070
H        11.64347905083095   -0.69817467023693   18.45309281557940
C        12.91371626162855   -0.26260019797085   16.71074571018332
H        13.60148113194778   -1.08478795902982   16.65877223207860
C        12.88762512985159    0.84185079796173   15.81336832042570
C        13.71338256691861    1.15844695356608   14.73045937654040
C        13.59489814427447    2.37544605217213   14.05015103191788
C        14.52094752240105    2.87527313026475   13.09414584655603
H        15.34318642490464    2.32205971726326   12.68387051426518
C        14.17318222266322    4.17952664013013   12.84938417028681
H        14.66095353273811    4.87991692828635   12.19968640015671
C        13.03715137157686    4.43998054544994   13.63419845949724
H        12.52642205622513    5.38371729246932   13.71717248804432
C        14.78488782636001    0.21448076404054   14.35293245900692
C        16.10116475085220    0.44644620174249   14.77466293315307
C        16.45189427323146    1.56308282944135   15.57757333119931
H        15.67480491583024    2.25000698222774   15.87783523471171
C        17.74015818228893    1.76785042504632   15.96578939906392
H        17.99520171338559    2.62223490813813   16.57527992649723
C        18.75741006284925    0.86906415322212   15.58183236526005
H        19.77291978734177    1.05497277164953   15.89946952411007
C        18.45884416304578   -0.22137690250465   14.82517574350760
H        19.22971986136050   -0.91997100482861   14.53233866121325
C        17.12894984166945   -0.47412732583884   14.40058368405201
C        16.80359463843455   -1.59017426356942   13.63572359708562
H        17.58377749938222   -2.28430380650449   13.35532839874642
C        15.49661209433761   -1.83375500192711   13.22529076365449
C        15.15608463397548   -2.97159000346560   12.44934659756631
H        15.94381815891168   -3.66133583092602   12.18135610837701
C        13.87345479003293   -3.18982793466249   12.05170332822718
H        13.62251081557629   -4.05917579157486   11.46173621338150
C        12.85520804967324   -2.27879107096659   12.40308730302723
H        11.84401493246643   -2.46734041487307   12.07365452921907
C        13.14019027662034   -1.17380661360994   13.14485326911208
H        12.35991845709851   -0.47509502413340   13.40846497528971
C        14.46342608802564   -0.91479301496482   13.58811685346843
N         9.97957568226104    4.55602137079874   14.75763972698175
N         9.94443861044608    2.98092955742906   16.87319258094595
N        11.88406553717107    1.67788597934241   16.19905687889975
N        12.66168185819323    3.36515538932749   14.32854974843129
Ni       11.13061932861385    3.19865503937599   15.47540307904058

