48
CSD_code = OXAFEZ | q = 0 | S = 0 | Stoichiometry = C17H20F3N3O3PdS | MND = 4
Pd        1.54331189455976    3.67533317121902    8.64672841153514
S        -0.32616597106962    3.67523267043708   10.51921247754852
F        -2.33512012292752    3.67515608975896   12.32131234085974
F        -0.56955765114784    2.59557382122451   12.93210417765233
O         1.10320625241949    3.67528450304077   10.79550956787289
O        -0.83552769853691    2.46010518615388    9.94628130446988
N         1.62823936178324    1.59961806313750    8.42416072762279
N         2.70666842474463    3.67529923831946    7.05141807877432
C         2.75882715891134    1.35306283518925    7.53412812136031
C         3.26103216996462    0.07302254994464    7.38104090362579
H         2.89138094669904   -0.73518554111154    7.99173054356221
C         4.24280053867934   -0.19866343944291    6.44465054109556
H         4.64291890895401   -1.19481678363407    6.34545466888910
C         4.66678083650998    0.82651170896839    5.62161758047030
H         5.40092762661140    0.63436593120985    4.85340948033790
C         4.16432378709516    2.10483989743340    5.75646514987993
H         4.52146085390093    2.83448705611650    5.05799518469331
C         3.22546567778307    2.43614391324170    6.75001469170185
C         1.73785835853354    0.88240128453854    9.69718481824770
H         1.66640025040408   -0.20082064530388    9.56255629005226
H         0.92074668206167    1.19534608249032   10.34693597822350
H         2.69181478644463    1.13543437673701   10.16677687521707
C         0.41881384044452    1.19163998040515    7.68383157463348
H         0.34239548795780    1.78351815156299    6.76417576513360
H        -0.46314668443704    1.35875817481752    8.30240829989551
H         0.48163572738408    0.13020792886831    7.41781644648890
C        -1.00160181924660    3.67522411475220   12.27146667491500
F        -0.56966808452105    4.75494902132312   12.93204938926457
O        -0.83560813536135    4.89031862363220    9.94626617335024
N         1.62764499237677    5.75100747431577    8.42359833968646
C         2.75825541631316    5.99763972073322    7.53356927091290
C         3.25979166747955    7.27788773126604    7.38005145311225
H         2.88893099844304    8.08628676545029    7.98973778344013
C         4.24247343159974    7.54953903937717    6.44462633277382
H         4.64179684743283    8.54594430355441    6.34488445209622
C         4.66894465004773    6.52375463511317    5.62370727386900
H         5.40447286892595    6.71558856920868    4.85674895729634
C         4.16733221917770    5.24516341876941    5.75910370648037
H         4.52761628332317    4.51481207938755    5.06310252466310
C         3.22618440524090    4.91431045857870    6.75062741346439
C         1.73770337745755    6.46797272637305    9.69674857139845
H         1.66669615161287    7.55124764287504    9.56233908308705
H         0.92057271951637    6.15523572634988   10.34657457338095
H         2.69164993177062    6.21448179863987   10.16614941749667
C         0.41811689295498    6.15914274918373    7.68359612574092
H         0.34154673897748    5.56740332648265    6.76387425737637
H        -0.46372020734024    5.99191998085530    8.30231238502294
H         0.48087721009758    7.22061388846693    7.41774584133448

