75
CSD_code = OXAFOJ | q = 0 | S = 0 | Stoichiometry = C34H35ClN3PRu | MND = 5
Ru        1.73973699139618   10.79767264976153    3.35192785502249
Cl        2.02720036039530   10.65439939464684    0.97911368862641
P         1.56020011957950   13.01543399412606    3.64713597724817
N         3.78721867849591   10.58662018535743    3.83623374112338
N         1.50082992847536   10.38490298522979    5.27580464088249
N        -0.30110194069953   10.20549181494885    3.30215021359880
C         3.85506569396253   10.53554707810767    5.28694237045304
C         5.05997117337200   10.59201175369290    5.96254285007846
H         5.97247201423580   10.82054101014737    5.43322634268883
C         5.12542242622552   10.33987370484155    7.32309819570608
H         6.06972380395003   10.40720439781053    7.84063302548768
C         3.98066027009210    9.93401753199529    7.98893580395669
H         4.03516080446901    9.64630687030869    9.02896205362577
C         2.76688319194241    9.88828467117674    7.34020762887770
H         1.90651860980994    9.50986900460411    7.86674929938509
C         2.64450093492274   10.28146788826463    5.99491076106799
C         0.20421144561981   10.44260328325833    5.69122979701313
C        -0.25473022056516   10.64217599051986    7.00226997796133
H         0.45216438210471   10.78617032778042    7.80067715011917
C        -1.60119041597778   10.74579613361644    7.28148923446210
H        -1.91635638334966   10.90685176450489    8.30221348867730
C        -2.54259745753383   10.66699610707347    6.27108939892220
H        -3.59614086645520   10.74546025695354    6.49085347912418
C        -2.11952121976144   10.50177367299728    4.96152401997318
H        -2.86157641997249   10.46287643970458    4.17919545296061
C        -0.77514758100899   10.39794646183404    4.65930944418627
C         4.82788577948841   11.39851609858473    3.21346051605519
H         4.85051578008171   12.38612076772499    3.67192055218587
H         4.58787476181237   11.50860695836812    2.15547033641421
H         5.81689782796893   10.93450342183714    3.29507995372648
C         3.89797721231353    9.20864414493127    3.33339216444273
H         4.86141265263107    8.76627652165418    3.62162594771209
H         3.82574487129734    9.20563846728780    2.24013515680187
H         3.10388258611779    8.57955779537150    3.76191285152337
C        -0.02440226236136    8.77856966810836    3.07740967930216
H         0.61450239936600    8.37917626272399    3.87546566138959
H         0.45775822568315    8.64204260792052    2.10141018901623
H        -0.95801623867376    8.19908014791017    3.08346050329034
C        -1.22123625091554   10.67085518663641    2.26989441076732
H        -2.10526196863344   10.02811528164688    2.18518680699354
H        -0.69516269697949   10.65486150194522    1.31405120709815
H        -1.52953385549680   11.69242759916949    2.48732958813232
C         0.23254473783765   13.98895524152704    2.84127599399572
C        -0.08790731357410   13.62920342134511    1.53538945949622
H         0.39327221309390   12.76335827951844    1.10116540182263
C        -0.99328063923541   14.37676619347337    0.80535908483469
H        -1.23871731244335   14.08917538480906   -0.20646831790499
C        -1.57868567081787   15.49781293144606    1.37104208429192
H        -2.28994270150029   16.08234922470662    0.80590055743818
C        -1.23559243372745   15.88037495109274    2.65744190779613
H        -1.67319267935264   16.76819560032499    3.09122110443848
C        -0.32405038604264   15.13964546634779    3.38904796336854
H        -0.04303947154093   15.46188890299269    4.38106987714693
C         2.87192280131962   14.14947591989808    3.04322163842599
C         3.35112556491628   13.91122481977461    1.75762257944216
H         2.99886352475199   13.04060290147372    1.22095962432504
C         4.26217080184864   14.77489129132216    1.17973965052435
H         4.63172706682711   14.58118400806172    0.18348103540025
C         4.69648246181766   15.89074084499377    1.87728299923094
H         5.41069327729221   16.56654861037101    1.42989338946236
C         4.20363532142925   16.14548905715904    3.14609649063211
H         4.52871799928418   17.02369643694065    3.68558397343527
C         3.28670046357163   15.28653567812481    3.72711412243142
H         2.89646192747788   15.50364608831411    4.71108598513338
C         1.43049003453439   13.41545591639635    5.41793662342834
C         2.59259423971855   13.42975411515186    6.18676071032801
H         3.55042370401152   13.29261963644996    5.70294960840150
C         2.52610890946241   13.61164489910302    7.55440013141822
H         3.43313309082678   13.61540072029527    8.14136465886168
C         1.29633733774075   13.78136245933794    8.17095166591782
H         1.24371720414941   13.93317796174129    9.23916879366038
C         0.13494124016699   13.73658581148100    7.41843971550930
H        -0.82641702304896   13.84264480000400    7.89947809219937
C         0.19757201494157   13.53254662091665    6.05127573673048
H        -0.71272745316665   13.45555800002544    5.47261624229337

