41
CSD_code = OXAFID | q = 0 | S = 0 | Stoichiometry = C16H20ClN3Pt | MND = 4
Pt        2.04455124695357    5.36875843453218    2.15064331170133
Cl        2.43874309394351    6.05256065402267   -0.02226462009548
N         3.82232560642044    6.06104027050900    2.87415461411048
N         1.71158806349564    4.79126114800684    3.98573088622174
N         0.20804355092994    4.57469688192190    1.75061891813353
C         3.89008720722668    5.63001073437925    4.27600359898616
C         5.01348042981891    5.87793413290999    5.04089273623949
H         5.83746136681725    6.44530963303621    4.63328157530383
C         5.10757700040995    5.39111315207860    6.33419564175640
H         5.98536503440423    5.59438120286144    6.92697620336468
C         4.08060219433144    4.60934079485384    6.83681065359593
H         4.16870507409852    4.17658617706946    7.82257672205858
C         2.94410012683918    4.36723627682817    6.09517825971449
H         2.18997673854449    3.71092843588391    6.49437356199495
C         2.78844343373551    4.91748740987319    4.81175554822323
C         0.44525119957350    4.33658503745992    4.20375432136772
C        -0.16850322778306    4.09315315274555    5.44400142484706
H         0.34732407642889    4.33722029723759    6.35677440488830
C        -1.45212648143259    3.59544663245354    5.51375517551238
H        -1.89496389049486    3.41370835300882    6.48207208209659
C        -2.17904289598657    3.33273176639564    4.36438684026371
H        -3.17515723486699    2.92364147608019    4.42454250451516
C        -1.62661652174773    3.64046960348435    3.13206622151908
H        -2.21459990074923    3.48176536543299    2.23982670666486
C        -0.34851191600495    4.15732019188102    3.04351776897282
C         4.92836793040327    5.46509512730050    2.11195467734081
H         5.89898272071305    5.82726707025611    2.46203628934083
H         4.81521665890602    5.72018460233493    1.05765248566883
H         4.89526784547733    4.37954291816390    2.22310834634972
C         3.86411466574758    7.52515557296774    2.77590800021475
H         3.04904435090261    7.94855847721650    3.36595901524712
H         3.74203959690919    7.81741125727662    1.73191857289915
H         4.81287354790138    7.92356837286143    3.14762629561400
C        -0.64952920326900    5.60212868483053    1.14364504841077
H        -1.63905298776441    5.20640868699478    0.89852455526872
H        -0.17890252126328    5.96782512217517    0.23029206199965
H        -0.76431951154005    6.43164550462935    1.84406919037101
C         0.34754221196352    3.42607651193540    0.84716220223692
H        -0.62515708774834    2.98704557721028    0.60598981055269
H         0.96824775845400    2.66584619109397    1.32521063774542
H         0.82706064930811    3.75345310780726   -0.07648225122074

