98
CSD_code = OXAGEA | q = 0 | S = 0 | Stoichiometry = C51H40ClP3PdS2 | MND = 4
Pd        2.03270307598080    4.22453566393085    4.09717997951369
Cl        4.12602437985055    4.87702421181968    4.65252773820988
S        -0.14227848816032    3.43381423105357    3.35076073568707
S         6.96474484537608   -0.34126324386994    2.40424121313376
P         1.27355319314001    2.63652832704395    2.20442378538577
P         6.64737340956266    1.46448973018569    3.04653485015763
P         1.21925690722770    5.95796959965259    5.31594710328126
C         2.74103483506689    2.44060340627465    3.19185201984367
C         4.05245486186102    2.43066406442359    2.59553250103418
H         4.30235516352836    2.90549585027606    1.65898936514121
C         4.92290596378815    1.78326144029449    3.42661328608502
C         4.19886338280295    1.26983692952548    4.56195451315759
C         4.61172837448933    0.53906077283502    5.66719146635098
H         5.64763253989179    0.24788135616982    5.77100196037888
C         3.66951330771342    0.18613005850302    6.61397307096080
H         3.97067487047429   -0.38895526166920    7.47750334389128
C         2.33305377847898    0.55323986891722    6.47385725171874
H         1.61772156128087    0.25486387264155    7.22707678049120
C         1.89978049097612    1.28713395769146    5.38341696377394
H         0.85020411958710    1.55090652679006    5.27827616001546
C         2.84009649107848    1.64684422800820    4.41921611484258
C         0.73294103898049    1.08965297602034    1.42606870303937
C         1.65246171233032    0.06322736271462    1.24194133039263
H         2.68367112388769    0.20174398880828    1.54082389327057
C         1.23286146575713   -1.12792329645490    0.67858359273746
H         1.94132050542106   -1.92930114710038    0.53268161734765
C        -0.09372907976558   -1.29154756969848    0.31079889105342
H        -0.41825387634490   -2.22509007412292   -0.12422832008439
C        -1.00918536569503   -0.26867607664682    0.50683189026034
H        -2.04277251989355   -0.40467362842028    0.22499240921735
C        -0.59952873043390    0.92545815232765    1.06991991778675
H        -1.29913364377537    1.73248330836725    1.24504330485066
C         1.84403228456587    3.75572558382789    0.87948257188674
C         1.98825917356036    5.11499745351607    1.15617133730020
H         1.60949922672389    5.53762267885230    2.10197036370052
C         2.57276952173550    5.94560579190745    0.21685394653620
H         2.69056672496101    6.99846082260367    0.42803057251334
C         3.01166168941432    5.42663839262498   -0.99146538123622
H         3.48028789957690    6.07483873528624   -1.71654925423776
C         2.84751392737264    4.08047570389312   -1.27375459259715
H         3.18519837247940    3.67859906270234   -2.21729329413037
C         2.26374233067953    3.24100240255763   -0.34144415779382
H         2.14533865074656    2.18622287775956   -0.54948250029420
C         7.58546459577820    1.91966542067101    4.54362670861802
C         7.13503236137259    2.90425943723315    5.41488235549363
H         6.19903516517030    3.41289701679948    5.23372338046056
C         7.89289355254340    3.21956360366792    6.52777944797295
H         7.54425126570419    3.98257377220177    7.20845015044825
C         9.08850143187196    2.56203428013830    6.77064895131669
H         9.67456952444239    2.81420592162656    7.64279398833457
C         9.53166313685625    1.57749241367297    5.90229911159291
H        10.46057559573576    1.06061155404252    6.09516454873392
C         8.77938270405501    1.25408273830048    4.78822605632282
H         9.09809824049611    0.47718720041634    4.10539200508431
C         7.05053457905528    2.77623554049268    1.83988134619164
C         7.64976124733292    2.42121036893766    0.64032149939647
H         7.87965669787907    1.37979539332204    0.45638288257302
C         7.93366975233442    3.39306416369379   -0.30314324136303
H         8.39922343315160    3.11724597421273   -1.23825118514127
C         7.61542083355489    4.71615303097082   -0.04703641610775
H         7.83149566630324    5.47543231559391   -0.78528328229843
C         7.02035974932391    5.06971568522238    1.15456651681444
H         6.77127586619931    6.10209528637850    1.35378074548206
C         6.73948081455796    4.10613984835434    2.10476879112142
H         6.26534852959053    4.38157101996722    3.03564506000809
C         2.28749771688715    7.41677672077031    5.46826436186954
C         2.92081964359148    7.85224722545285    4.30646145436135
H         2.78987654222547    7.28630555922562    3.38830628695359
C         3.73262013775693    8.96916001228038    4.33752897378877
H         4.22862089504097    9.30404716583127    3.43841806462392
C         3.92032335622188    9.65207917571006    5.52934840468095
H         4.56002045710640   10.52177417628365    5.55693069372133
C         3.30159374862942    9.21292220796777    6.68761574977116
H         3.45990671953291    9.73908203972593    7.61759605321233
C         2.48452238123217    8.09571889140297    6.66282717347824
H         2.01328022997394    7.74511596623645    7.56978585885338
C        -0.40494170797352    6.66506212392867    4.90687448221191
C        -0.54081382708581    7.92363818225104    4.33107352988233
H         0.33415440421787    8.53435222892381    4.15446742112977
C        -1.79783164610218    8.39505555392198    3.99569391384509
H        -1.90164290386852    9.37582140363706    3.55487695234297
C        -2.91881440563213    7.61410318095701    4.22227206656415
H        -3.89765941210929    7.98651692641574    3.95892173204251
C        -2.78455263170255    6.35280892595132    4.78210919747286
H        -3.65684405898719    5.73941339890957    4.95171887309008
C        -1.53348134359856    5.87583553744789    5.11991751002926
H        -1.41839023530977    4.88884326839646    5.54828452039789
C         0.98605877845510    5.30524772693505    6.99306047483434
C         0.16058625819189    5.92179756380390    7.93058918255724
H        -0.37452790582971    6.82460967393379    7.66743914446307
C         0.01639848214435    5.36425801041534    9.18768960532533
H        -0.62467328003002    5.84073446865436    9.91505898496008
C         0.68679631134163    4.19505776058293    9.51419712893035
H         0.56571986495383    3.76418165644112   10.49710472132381
C         1.50492360969714    3.57715918290436    8.58252117241056
H         2.02546267227504    2.66499266204347    8.83315696084705
C         1.65467895462389    4.12772875733494    7.32188803286603
H         2.30479795452296    3.64451158773972    6.58533485170656

