19
CSD_code = OXAQEK | q = -1 | S = 0 | Stoichiometry = C5H6Cl4IrN2O(1-) | MND = 6
Ir        8.35854113137816    1.47420473195730    3.23381723783548
Cl       10.07977387021134    1.34964636255686    1.60441812529210
Cl        6.52901013183380    1.72628594629424    4.73882717970774
Cl        7.29883663011269   -0.40866543110318    2.25219114296302
Cl        9.33638525208263    3.45863808852998    4.12101463583543
N         7.31492280872681    2.66956585381506    1.94274300219572
O         9.87377822473084   -0.25532596881222    5.15043666248425
N         6.13555995273943    4.36728405702579    1.23207629182312
C         9.29602713640747    0.40332597689218    4.41652417226259
C         6.30261530500557    3.51861577707432    0.17191831805255
H         5.89435210337621    3.72861529850538   -0.79543668597231
C         6.76228999723102    3.81100341041768    2.27996075514541
H         6.80973644730980    4.24605527629181    3.25924896396217
C         7.03886230837002    2.46795878337008    0.62782435927184
H         7.38498150868508    1.59162523676779    0.11714475438187
C         5.41350667087554    5.60556235628493    1.22844015523516
H         4.34446880084967    5.42634360013849    1.08732437108721
H         5.77136559905018    6.25026863196162    0.42297576398874
H         5.56558612102463    6.10789201202991    2.18205079444735

