73
CSD_code = OXATOX | q = 0 | S = 0 | Stoichiometry = C29H39Cl2IrN2 | MND = 8
Ir        9.49868020054354   19.44502440603194   -5.04436507536961
Cl        8.91309470394686   17.30173338357341   -5.82358763166393
N        10.81656300767364   18.39511355508357   -3.84137559163918
C         8.47950899813309   21.22868203078540   -5.85664756524220
Cl        8.10879633943922   19.38502651967297   -3.14154390365340
C         8.86892232802772   20.40619951684900   -6.94105487907994
N        11.30725805409575   16.74433728265918   -2.28988241643168
H        12.28485716073137   17.00955013361373   -2.32575580625640
C        10.31256472001670   20.33915418230444   -6.94942936371535
C        10.80115587204323   21.19943105235368   -5.92406561292993
C         9.68252659249663   21.68745694535668   -5.19519662012915
C         7.10765309945263   21.71845245369096   -5.52439433181798
H         7.02063919473131   22.77418038877657   -5.78761834109678
H         6.91088112621803   21.61524576213633   -4.45843734970431
H         6.34865835070817   21.15870410856591   -6.06460773988752
C         8.00177535735345   19.82237129195826   -8.00789255824867
H         8.21421750789085   20.31093700795746   -8.96019395698754
H         6.94862974017968   19.95254644223811   -7.77388078329106
H         8.19541571667010   18.75648236203105   -8.12012219771910
C        11.11212353489681   19.70963979080205   -8.04207788062609
H        11.07562931394065   20.33513227673581   -8.93641856279887
H        10.70573216118205   18.73298288546634   -8.29695142285899
H        12.15195060366517   19.59062761349045   -7.74870831976810
C        12.22318099525704   21.60218094707751   -5.72481580939882
H        12.90532816668160   20.80699439216595   -6.01540690832398
H        12.42192523077341   21.85717144366952   -4.68683543691924
H        12.43818757539651   22.47845114530198   -6.33953013379116
C         9.69619126662361   22.70916119010444   -4.10638622952100
H        10.67603848621831   22.77382451950211   -3.64014242150386
H         8.96199974424995   22.45983826462555   -3.34245472305521
H         9.44078448123719   23.68945603330998   -4.51336103643750
C        10.47336665742134   17.38780489957336   -3.10852435099292
H         9.45791907082088   17.02169368277838   -3.16117774636259
C        12.15799024721524   18.85431153123666   -3.78190763147768
C        13.09457071265922   18.36740036989156   -4.70043736754627
C        14.39669012634325   18.84305052512681   -4.63934691028793
H        15.12299908347775   18.47070085372308   -5.34825680083599
C        14.78631352906601   19.77834018352412   -3.69114222252035
C        13.84173863773290   20.23650916482065   -2.78229564111294
H        14.13422819226843   20.95918924236210   -2.03347352673906
C        12.52997202399985   19.78767587888141   -2.80718473281011
C        12.70363316211810   17.32885202517988   -5.70606073831530
H        12.81706824269876   16.33149264766707   -5.27936839448859
H        13.33735327283115   17.38687358024828   -6.58769876860064
H        11.66167346273407   17.43928898603438   -5.99889594832748
C        16.18953685172674   20.30252705058783   -3.65837729076970
H        16.24428558865170   21.25198330474373   -4.19211249485085
H        16.87655239551329   19.60726921624675   -4.13445306876067
H        16.51416946517783   20.47611830051738   -2.63476866283835
C        11.53448716055787   20.26632842434015   -1.79579111412173
H        11.50504373832981   19.58182452273570   -0.94659375454098
H        10.53293155663829   20.30610375567281   -2.21988470753629
H        11.80756454536169   21.25002061914112   -1.42157145462218
C        10.97502329170931   15.64977155829783   -1.46699425918502
C        11.84826099001008   14.55544430004540   -1.45522380034257
C        11.55550555492140   13.46889117861656   -0.65095352477795
H        12.22374831491389   12.61977047429304   -0.64537094656481
C        10.41371220051486   13.44348691531528    0.14001976203075
C         9.57678869387211   14.54674533718356    0.12623315426948
H         8.69417565858484   14.54827864409547    0.74938804359382
C         9.83562274077783   15.66384209922226   -0.65920187774528
C        13.07409710807490   14.56056459531718   -2.32061878583883
H        13.57913568702575   13.60014942722599   -2.26673437971063
H        13.77813897876769   15.33110546831733   -2.00128422517482
H        12.80700501516962   14.75240906440667   -3.35923643596727
C        10.11831526398272   12.25678819768509    1.00523000542086
H        10.74638910000794   12.27746366498070    1.89626229561728
H        10.32636276070148   11.33155560797548    0.47196905031924
H         9.07851807091737   12.25535252983999    1.32122547517500
C         8.90555525951960   16.83514170874263   -0.58795776502611
H         9.41191883014739   17.77384034956106   -0.79638975836518
H         8.45691451281246   16.89105206803161    0.40124234292869
H         8.09515461386946   16.73779871773410   -1.30904043233290

