72
CSD_code = OXECAW | q = 0 | S = 0 | Stoichiometry = C19H48NOsP3 | MND = 6
Os        9.84095530857391    1.63320431430803    8.58201211588097
H        11.23864746752404    2.02179705838932    7.91270086858647
H         8.49975767275967    1.12325035633570    9.31541368550595
P         9.46570466366407    0.14753579635641    6.86083774826542
P        10.60843458819148    2.47753577261726   10.58112456420808
P         8.72700561261576    3.45013257347436    7.77853949585108
N        10.84352137185677   -0.26800425561966    9.46179755184037
H        10.04036520929936   -0.67959561396341    9.94527003828554
C        10.17654144794881   -1.47669034002468    7.45515392398657
H         9.37439318938494   -2.02374601520177    7.95943866317221
H        10.53779255110175   -2.07622461012649    6.61598813587050
C        11.29861854914881   -1.20743632004923    8.44548806669959
H        11.63902525586114   -2.15184738268987    8.90764272939599
H        12.15162642009453   -0.74999209107218    7.93520103583133
C        11.87804043233518    0.01411993648006   10.44809696581779
H        12.73551480278251    0.43166194843338    9.91227622712748
H        12.20500309783198   -0.91420586623308   10.95072504578228
C        11.35896023172218    1.01444975531550   11.46929904433725
H        12.16065685122661    1.33265749961862   12.14027676368393
H        10.56617503651640    0.54812654591906   12.06197256206857
C        10.30883563847588    0.23471550624246    5.17620367122624
H        10.11504450518806   -0.70507629067359    4.64767413411558
C        11.81536482414135    0.40591622177577    5.32353339505100
H        12.26410702797598    0.63901175719108    4.35821527426497
H        12.28348768848687   -0.50166433555292    5.70038601947741
H        12.02618889253038    1.22316479728443    6.01050544804779
C         9.72485313335472    1.40255170747312    4.39263420974493
H        10.27010134316193    1.55699455359385    3.46164789277551
H         9.80562397303940    2.30381310930699    4.99907096392123
H         8.67701730205637    1.23504744393294    4.14837736570559
C         7.76168813389355   -0.46476200839042    6.30424259063286
H         7.29765917337737    0.41973692311407    5.85191766416017
C         7.73570078288440   -1.59878747715351    5.28077531160278
H         6.70467000240368   -1.92540442364366    5.14413584048957
H         8.31374037309019   -2.45551736965514    5.62014816899420
H         8.11030717102159   -1.28396455042483    4.31049034065266
C         6.91964996532345   -0.84639919193988    7.51929949556812
H         5.86093495317173   -0.84933686408448    7.26305567496250
H         7.08072458079255   -0.13046351704126    8.32288319747087
H         7.17720219443680   -1.84074303419691    7.88120937823851
C         9.51518324268746    3.14196661714536   11.97781330497278
H         9.10482144865703    4.07457776654334   11.57252554570447
C         8.34111580836050    2.19572484583693   12.21746429566685
H         7.53147209836815    2.71468003033295   12.72891157104481
H         8.63748147707281    1.34971382328902   12.83567827071085
H         7.96743533863381    1.81842089638451   11.26762620619195
C        10.20375606822438    3.45741511613551   13.30492355479376
H         9.44292576215237    3.70695325955028   14.04459677607118
H        10.87465306590573    4.30873242668688   13.22640055923281
H        10.76231312926169    2.60199211269538   13.67831817190181
C        12.04461815184878    3.68993880776559   10.73343491995943
H        12.31371437285813    3.77382816094510   11.79177606293782
C        13.26399057107636    3.20421931693011    9.95998456893854
H        14.00460557975669    4.00030225168225    9.88775969023991
H        12.96813174701133    2.91525415003763    8.95322933156824
H        13.73416972565018    2.35386568220176   10.45055171553490
C        11.59447144827229    5.04319638837591   10.19996139517654
H        12.42850511611246    5.74365027305477   10.16080482108891
H        10.81476104694968    5.47806031178871   10.82346410306107
H        11.20494697975590    4.90445320165412    9.19190930130105
C         7.93939080396264    4.58428648591507    9.00392293305323
H         7.32923882612945    5.33329984893961    8.49992302681311
H         8.71363170930814    5.07806780534030    9.58665672288543
H         7.31851911120517    3.98608019453168    9.66778965824938
C         7.22238069862953    3.13853787671817    6.75477254260431
H         6.68820070334734    4.06772006111617    6.55851881888438
H         6.58095245802461    2.45117402067346    7.30281852299448
H         7.51484782722016    2.68045889809243    5.81283838761593
C         9.51319514197897    4.74403478023363    6.70746921038692
H         8.77560842852708    5.47862294593546    6.38668497470702
H         9.96212447007632    4.27135085409268    5.83716771767891
H        10.30369622372434    5.24115876994940    7.26504204872874

