87
CSD_code = OXECOK | q = 0 | S = 0 | Stoichiometry = C38H44ClNP2Pd | MND = 4
Pd        0.84539579245376    2.41045902962435   10.20416966119096
Cl        3.08313287413131    2.50004066283634    9.91927667571575
P         0.47330534702470    4.63489841369085   10.22117630498216
P         0.68335740431428    0.18614186790299   10.27238584224249
N        -1.19039843185594    2.33867421714307   10.39698305528145
C        -1.91520542422393    3.39389574962694    9.92015032997620
C        -3.24470441147389    3.31302405897046    9.47171634096862
H        -3.74649982347392    2.35673168396398    9.46376112812358
C        -3.90230648401016    4.42545240819315    8.99329317552828
H        -4.92260515976673    4.32023837059425    8.65062840491486
C        -3.28865336576267    5.67333489691194    8.92207618072313
C        -4.03309159635154    6.88113541386671    8.43738091848629
H        -4.85550597686983    6.59348589057363    7.78638818968815
H        -4.44850541131394    7.43242824058479    9.28236342786897
H        -3.37071323386249    7.55132343477331    7.89319369650536
C        -1.95827650151437    5.76125205295169    9.30389782023695
H        -1.43285402433284    6.70323771115495    9.21152632124804
C        -1.27931479245922    4.64964854192874    9.77275367737159
C         0.46010036271933    5.16576661307881   11.96265016713947
C         0.01767010869105    6.42034856892681   12.36954127488196
H        -0.29155598867748    7.14645503615631   11.63038623517020
C        -0.02299457150902    6.72928577086570   13.71661197010831
H        -0.36228567200631    7.70436197601886   14.03504845973470
C         0.36744541352893    5.79042019221700   14.65934344270032
H         0.33387589213140    6.03851272852876   15.71005327746691
C         0.79695012753551    4.53539846957062   14.25869497500834
H         1.09694973114903    3.80534122449500   14.99613755027957
C         0.84205322541937    4.22059595556673   12.91228303345275
H         1.18556707073382    3.23181988349774   12.57807047666764
C         1.24213638381951    5.98039414245252    9.28894212670437
C         2.13126607654112    6.87608560245891    9.87258953791816
H         2.34018302782723    6.81471765346999   10.93164183943139
C         2.74736738191831    7.83861976077608    9.09284956593187
H         3.43338388267832    8.53832249710420    9.54766568381667
C         2.49303657322233    7.90290147316218    7.73275693698929
H         2.97631802769595    8.65664623768633    7.12873071513494
C         1.62984478205651    6.99203928792602    7.14280895950829
H         1.44488643451873    7.03260937965817    6.07919429551948
C         1.01241311993016    6.02777177104145    7.91505224041583
H         0.34548045768901    5.30156699589368    7.46535852641732
C        -1.75062068022395    1.20373749685799   10.90974658940048
C        -3.00722243869839    1.15779010424248   11.53707955190369
H        -3.56447763260677    2.07266187951107   11.67329155336395
C        -3.51383519992262   -0.02600195763625   12.02718336603952
H        -4.48192299372611   -0.01968415003327   12.50884584009693
C        -2.80903563245899   -1.22269198930165   11.93275229352864
C        -3.37734332820260   -2.51309277161030   12.44396962025249
H        -4.34436868698059   -2.35037945243708   12.91293965879051
H        -2.70834816424776   -2.96469214490229   13.17589787603696
H        -3.50537904731123   -3.22404175595225   11.62742744267143
C        -1.53902844504051   -1.18306670464333   11.37578692627745
H        -0.95305651405780   -2.09131785312904   11.33224991088094
C        -1.00711390806554   -0.00112636266237   10.88542024591503
C         1.74375330445486   -0.81300300111285   11.40353172607611
H         1.26852617513889   -1.77766494544668   11.62060623156255
C         1.82696676478013    0.03094500769471   12.68051032738874
H         2.21787791317757    1.02335808270153   12.40476209303358
H         0.82358638427538    0.15952973005140   13.10345112339487
C         2.76139228236149   -0.60515712881953   13.70256141280201
H         2.82154831349910    0.02517418504309   14.59205251044794
H         2.36386576567272   -1.57705645777773   14.00708282963395
C         4.14830531279462   -0.78744096657809   13.09404314815822
H         4.55286217849055    0.18900567134536   12.82143758636296
H         4.82090626348091   -1.24313061247799   13.82355155605505
C         4.06412525726627   -1.65870536837454   11.84526398767797
H         3.68867688904515   -2.64922633475013   12.11815797076138
H         5.05798241997671   -1.78504771175159   11.41212732201173
C         3.13476946482024   -1.02785352606943   10.81122912350641
H         3.07458916408631   -1.67648520896524    9.93380610487844
H         3.53665784285292   -0.05976349201263   10.49838880761599
C         0.74635181037414   -0.50156947534971    8.55429140126529
H         1.80843383766153   -0.58014981950346    8.28630530693811
C         0.06251527887407   -1.85475211018359    8.38783783222531
H         0.55350188082719   -2.60431862685548    9.01373259459016
H        -0.97955674296433   -1.77480432216321    8.70846484675259
C         0.11015815596588   -2.28594788227573    6.92333790282208
H         1.15088001091593   -2.41282322981685    6.61561057263101
H        -0.39360471245706   -3.24767524831099    6.80532740561066
C        -0.55536078560855   -1.23709518701272    6.03674312787396
H        -0.51278512199553   -1.55329578296124    4.99262296017410
H        -1.60755081554640   -1.14349982826625    6.31588760867513
C         0.13280351310084    0.11631988463923    6.19765751667061
H        -0.35943697602699    0.86137195033090    5.56939386173869
H         1.17243948561306    0.03603613551103    5.87145656110658
C         0.09384389291386    0.55906633661800    7.65654318530098
H         0.62871305436928    1.52555780577791    7.77399746143636
H        -0.94873341896587    0.70132327301376    7.96710267620505

