87
CSD_code = OXEDIF | q = 0 | S = 0 | Stoichiometry = C38H45NP2Pd | MND = 4
Pd        9.22942509265404    3.02103016253017    2.92368782213291
N         7.19542301077431    2.94300542127052    3.19243107468949
P         8.85204281490748    5.21885790471254    2.90502110131972
P         9.06444467637018    0.81371112523484    3.01656393683038
C         6.44817653237452    3.98604942939860    2.73234688531914
C         5.09883047785622    3.91159460353000    2.34022791655000
H         4.58685353717563    2.96052475381078    2.36619759150068
C         4.43182095458631    5.02124644662520    1.86778202428549
H         3.39638829820323    4.91832244731285    1.57164540396003
C         5.05124749465364    6.26180587417288    1.74572849513175
C         4.31001779405227    7.47055302230724    1.25684142894715
H         3.29725105492885    7.20991876740261    0.95939393797601
H         4.82063815571529    7.91538415925869    0.40301922750659
H         4.25451227267276    8.22624777278459    2.04118398373841
C         6.39858114289862    6.34420995704395    2.06609634417938
H         6.92855348262309    7.27847631487689    1.92736413819872
C         7.08389065778017    5.23621195992324    2.53128429327701
C         8.91916472798656    5.80191632467454    4.62578140414139
C         9.38850368707228    4.88048805378981    5.56042663224955
H         9.75298402044293    3.90553917731430    5.20606625354117
C         9.39592662310839    5.20128277916983    6.90570814817220
H         9.76164280227332    4.48962087898680    7.63187354656534
C         8.93087633930201    6.43920682364752    7.32075273183880
H         8.93871048807875    6.69317433385726    8.37077388294142
C         8.44597995176887    7.35014500361677    6.39507508832610
H         8.07250460103868    8.30854818180967    6.72641239901225
C         8.43064710655158    7.03331799660100    5.04878002805375
H         8.03341664692707    7.73246271258558    4.32587751807756
C         9.53144864585828    6.50757438691164    1.83123516166614
C        10.21301043997862    7.63518747423176    2.26814967927945
H        10.35809190288978    7.80523068471102    3.32576461009906
C        10.70978118171483    8.53579586583856    1.34061416654889
H        11.23364560648174    9.41841450701614    1.67831729667827
C        10.54125554545653    8.30958129280491   -0.01493986738773
H        10.92986306370772    9.01750821354037   -0.73221743901635
C         9.88456380735851    7.16922957654768   -0.45442962043319
H         9.76721151862632    6.98581068721375   -1.51256717402707
C         9.38683496180816    6.26923879092445    0.46540810147943
H         8.87983817053702    5.36444417344153    0.14498658181305
C         6.65127766849818    1.81204943795307    3.72612380995611
C         5.41276791460496    1.75824184930034    4.39437623218397
H         4.85612990914824    2.67064797370037    4.55178072482123
C         4.93123897718560    0.57406950479580    4.90164057230789
H         3.97958856006133    0.57038185034785    5.41580070125848
C         5.63978799786519   -0.62216323383602    4.78434512273175
C         5.07098914478928   -1.89983821067457    5.32613529945899
H         5.76286051110538   -2.72602322489688    5.17957624792696
H         4.13260860819916   -2.14196106969919    4.82704540097215
H         4.86446608637787   -1.80548542578243    6.39215885957054
C         6.88886885164915   -0.57772666509869    4.18915958273869
H         7.48079705037174   -1.48132161712994    4.12525653082187
C         7.39806411561644    0.60946126172184    3.68183637877844
C        10.15313170202004   -0.20214830000733    4.10696822854420
H         9.73122875770663   -1.20120831215853    4.26442115192568
C        11.55618655349401   -0.30575282842544    3.51587066585012
H        11.89057683811938    0.70085956169247    3.24113296835771
H        11.53842379901166   -0.91741425430718    2.61056963360679
C        12.53002168752268   -0.91386633225207    4.52206923853928
H        12.22370715218274   -1.93819305424627    4.75059475925759
H        13.52971993509682   -0.95369077757929    4.08487377831567
C        12.55634277100181   -0.09600352428767    5.80903689586296
H        13.25553435345267   -0.54129892744566    6.51966961359500
H        12.89949459858894    0.91634550283357    5.58580440359732
C        11.16009234321116   -0.03173400356005    6.41939776807451
H        11.17737248549819    0.56427136049399    7.33412756560089
H        10.83088933782293   -1.03999719837013    6.68360819850578
C        10.18005791991624    0.57815499654708    5.42485173249873
H        10.48616900775736    1.61295856807266    5.19478583401026
H         9.17302943105430    0.61021146985075    5.85367092308241
C         9.06236008190562    0.13928842584923    1.29069027779814
H        10.11284417116389    0.05020985344850    0.98237486815970
C         8.39319914327657    1.22677272290813    0.43810869545830
H         7.36329709915075    1.37195254450891    0.78770802090444
H         8.94557184885793    2.18395395529312    0.56329212978920
C         8.37255882152605    0.81797540675694   -1.03051745198273
H         7.86401331421344    1.58193224371483   -1.62233158187854
H         9.39798603789097    0.73505254464670   -1.39929601160603
C         7.66343907552073   -0.52437690445601   -1.19508935121654
H         7.66573133225459   -0.81906379187510   -2.24656417960072
H         6.62284739250878   -0.42441696878241   -0.87742637388431
C         8.34570753230163   -1.59973828392020   -0.35382189121716
H         9.37386603854045   -1.73188038982147   -0.70029318610936
H         7.82641680191732   -2.55283854460929   -0.47523403528367
C         8.35456488959538   -1.20031218652025    1.12056641375080
H         7.32574348402034   -1.11453704140737    1.47989297940392
H         8.85715658039063   -1.96985330176435    1.71243576125169
H        10.71937299674896    3.07098529656664    2.68925135814645

