75
CSD_code = OXEGUU | q = 0 | S = 0 | Stoichiometry = C32H37ClN4Ni | MND = 4
Ni        3.02423416080348    6.51317131130572   -0.01453350110918
Cl        2.91782870344394    8.48636350321602    0.57742126607006
N         1.54245962354213    6.48193322487311   -1.27629453196966
N         0.22394523514924    5.30778470431340   -2.64380170879263
N         4.57913102916109    6.00825087913081    1.01435439404896
N         6.08393650358789    4.46624830001866    1.59534021993015
C         3.14042192421732    4.76428568617591   -0.53093823466772
C         2.25088624766686    4.26753233460829   -1.49068263543606
C         2.46126055119358    3.00423139868537   -2.03407669810364
H         1.81356658218951    2.61198632916661   -2.80478128896922
C         3.54361386734870    2.25364639460337   -1.59585924434082
H         3.71636754517022    1.28049132873099   -2.03197455595777
C         4.41951322419979    2.72039774603340   -0.62549166304443
H         5.26245175388351    2.11404126200061   -0.32678600049272
C         4.20834620143037    3.98066500675297   -0.07561422594616
C         4.97424278124928    4.76771611863865    0.88064933372220
C         6.58361253828867    5.69365403289152    2.20246437175158
H         7.49120580547212    6.02807368802696    1.68745908757498
H         6.81907527842351    5.52898966915953    3.25495597095500
C         5.42152144900849    6.68651357600379    1.98908448694007
H         5.77527934820512    7.62958235888229    1.56088381035905
C         1.29005121086937    5.31493519966182   -1.81158776826881
C        -0.29303066172745    6.66554412212400   -2.75232460327589
H        -1.34800035485308    6.69056720706762   -2.46529038488800
H        -0.20383175962095    7.02521724519989   -3.78078431156420
C         0.60570704417054    7.47195748262705   -1.78705107849671
H         0.02640205991382    7.87771175313161   -0.94803128356998
C         4.61060969455957    7.02387139887978    3.25837462174274
H         3.77727932496032    7.64855731845245    2.91966689485280
C         4.03176495028262    5.77387690717431    3.91641314955774
H         3.40105224159082    5.23426765540562    3.21157259890193
H         3.41713791600531    6.05788540588824    4.76719644327881
H         4.81283852989277    5.10360757924885    4.27308512071827
C         5.45101139454087    7.83420475180790    4.23937852935358
H         5.83614844370074    8.73036699428759    3.75931426443032
H         6.29161663987973    7.25531406333197    4.61856209514375
H         4.84034447252817    8.13715352271137    5.08613503683740
C         1.35268825294364    8.64967571093386   -2.44594106493214
H         1.93339805186097    9.11942127381535   -1.64587055658418
C         2.33276702757523    8.17464235407705   -3.51518572687365
H         2.87797705884782    9.02440518317916   -3.91797830930181
H         1.82869229859312    7.67261382762445   -4.33982288651897
H         3.05413212617880    7.48600954330842   -3.07530573233583
C         0.36986761576741    9.67872654437395   -2.99446856847513
H         0.91288314324934   10.54630727383982   -3.36050296098517
H        -0.31163123695435   10.00820413691664   -2.21377804713583
H        -0.21750678316903    9.27600148857093   -3.81792519591127
C        -0.50193494884816    4.20581559919400   -3.09985162045326
C        -1.13033084454695    4.24912906740863   -4.34218504908631
H        -1.03647513671852    5.12660667177742   -4.96327746552914
C        -1.86492043829963    3.16793791833100   -4.78690523641169
H        -2.34306260430684    3.21402160938271   -5.75471196141939
C        -1.99854146737208    2.02084644056468   -4.01285241697855
C        -1.38453762216797    1.99319184650270   -2.76705374005569
H        -1.49010869244532    1.12036722382099   -2.13890823887775
C        -0.65411803406763    3.07116534199212   -2.30600253995097
H        -0.20722419392337    3.04410121016438   -1.32366384964101
C        -2.77961336450087    0.84789399306172   -4.52022915422717
H        -3.01815364272477    0.16025386660072   -3.71283832992668
H        -2.19946992889958    0.30758911131248   -5.26893550410568
H        -3.70510683226982    1.17525152239446   -4.98977998116848
C         6.55084797815278    3.20820551891332    1.97236838201440
C         7.91211189355344    3.00340530732965    2.17888793286405
H         8.60728131107916    3.81397009422430    2.02214682993586
C         8.37666222657326    1.76200381741735    2.57105575844718
H         9.43705525201683    1.61858981919854    2.72078072616476
C         7.50585931268853    0.69929898279435    2.77019636240975
C         6.14472157015033    0.91886633927593    2.58328030494781
H         5.44849290437797    0.11024773364758    2.75356679688211
C         5.66596417458297    2.15507706522198    2.20109572183510
H         4.60458926619220    2.31673156907975    2.08850203185156
C         8.00362855632346   -0.64730595610795    3.19748833209520
H         9.08910972307433   -0.69066868031023    3.16241284997061
H         7.60044731422416   -1.42649845929453    2.55270186331720
H         7.68295721187741   -0.86149937220141    4.21698227011091

