54
CSD_code = OXEPUE | q = 0 | S = 0 | Stoichiometry = C24H23Cl4NOTi | MND = 6
Ti        5.83304238497267   12.20957033145037    2.03634829962452
Cl        6.93950981110225   10.29367579683288    2.37595284424573
Cl        7.40226112530675   13.04137850413148    0.80496647031884
Cl        4.49937371551729   11.66619074598651    0.43337732752820
Cl        5.02073202952093   14.22285039297491    2.58912729036224
O         6.68967278800658   12.52649832530582    3.93546246253007
N         4.26803904574820   11.36928903379521    3.44828525571740
C         5.99720533073424   12.16152597871375    4.88024760695437
C         4.65124163654286   11.53052656587148    4.65635937791356
C         4.08488833387893   11.22149085305081    5.96420597447480
C         5.04979527279265   11.64234447395700    6.91245753671813
C         6.20724244291803   12.20929021532749    6.32049401619174
C         7.22472076765745   12.65892452811984    7.13210628731374
H         8.11924485165606   13.09543171049512    6.71613072536728
C         7.06881625810013   12.53375271451623    8.52296322473950
H         7.86559757829755   12.88574771609095    9.16104450171744
C         5.94633182655291   11.98198221376732    9.09754414810922
H         5.87077149747091   11.90532527986711   10.17227229736974
C         4.88268286644014   11.50987422678901    8.29446592249219
C         3.67051437967022   10.91841292076317    8.72029920705087
H         3.48592922098442   10.79068569486997    9.77654175935935
C         2.73542478647614   10.50801136685380    7.80053528092572
H         1.81793595798641   10.05756947556464    8.14893318697698
C         2.91871649715429   10.64797855439320    6.41155745906949
H         2.15662751540955   10.30895507478855    5.72659926726315
C         3.01368360933373   10.79912808831013    3.14189015121917
C         1.87409128364320   11.61469766494454    3.07874895440578
C         0.66827179638637   11.03704564552670    2.70635721377788
H        -0.21070106255772   11.65810860043816    2.63639707907528
C         0.57362886764998    9.69026234588699    2.41901707129620
H        -0.37239067332367    9.26236524998708    2.12406780079270
C         1.69819058548007    8.89483434896458    2.51298597195657
H         1.62415128013876    7.84097848901632    2.29623782180054
C         2.92713031625263    9.42486084557400    2.87809836574441
C         1.93669026108066   13.09804944613116    3.35260320406787
H         2.93220974883786   13.36229557128711    3.72083138922531
C         0.92166296308335   13.51878431205063    4.41813100112097
H         1.05393168448280   14.57282025074325    4.64895884109227
H         1.06476054885533   12.94594848543777    5.33341328777131
H        -0.09941558961977   13.37305800772994    4.07581279467272
C         1.71671901272228   13.85842648461000    2.04183131129807
H         1.84907816330834   14.92438975922735    2.20590422358991
H         0.71757773594725   13.68174727600683    1.65075079021727
H         2.44562126325636   13.53178212287369    1.30081937717114
C         4.13493361575380    8.52388896849145    2.97277167855559
H         4.98210532673158    9.09354419196437    3.36601517575838
C         4.51817136354298    8.03758869545136    1.57287902545799
H         5.43169236327697    7.45131375993325    1.62337463466801
H         4.69396546955013    8.89326325727367    0.92191200006020
H         3.72915483729529    7.42623309930767    1.14147215404997
C         3.88402683388380    7.34931691944140    3.92165489015677
H         4.79931340007040    6.77456837643613    4.03847556239312
H         3.11368950684373    6.68526148551048    3.53851151982157
H         3.57493756719306    7.70735555716521    4.90279897844727

