64
CSD_code = OXEXUL | q = 0 | S = 0 | Stoichiometry = C19H40NiO2P2 | MND = 4
Ni        2.64748013425996    4.80651891507581    3.86192170467125
O         1.54401703239238    4.91544217606459    2.29564222079259
P         3.93110174804660    5.88992136546829    5.30914094822656
C         3.41421331850304    7.04759225295684    6.71809029808336
P         3.06757254926313    2.78649641117353    4.74648940215840
C         1.38833751664022    2.14609732960431    5.35977510277236
C         3.89539540943775    3.25290364108405    6.35400427260533
H         3.09986745230892    3.48278240217329    7.06194666459862
H         4.47366799269091    2.41666287575554    6.75454117910024
O         1.64649680104077    7.16951705198494    2.75465533417274
C         2.62790269983629    6.19303542361190    7.71496322107026
H         2.14289417590924    6.83365532645836    8.45064811616378
H         3.27162926405612    5.49921035651682    8.25019858809501
H         1.85401993778186    5.63670250224180    7.19039788881210
C         3.72696141707997    1.15930890524260    2.62830001916112
H         4.43640247243560    0.50317266050983    2.12554467419838
H         3.72578712340073    2.12230755010313    2.11713288175398
H         2.73732682181386    0.72418805247403    2.53055537341517
C         4.12280904679387    1.35141586800329    4.09467074538873
C         6.70631313489820    6.81005928664187    5.03721567899905
H         7.46680542012157    7.07443070610633    4.30250305793533
H         7.02271387768344    5.89289686616066    5.52717999130955
H         6.67434412587721    7.60151907748601    5.77806052191642
C         4.79370014207744    4.48610220109156    6.19207937926777
H         5.65017334876615    4.21499902860574    5.57590383252849
H         5.16727960215140    4.81209827413533    7.16582178448398
C         5.54815401669241    5.67315073155672    3.14422309632179
H         6.02061662321529    6.17123178595061    2.29942894843131
H         4.56960848406591    5.28411826056877    2.80558643661557
H         6.17373169861186    4.82917346453672    3.42558485012821
C         1.75506292004172    5.99696798933717    2.74376810053337
C         5.36722763049413    6.64624464410106    4.32049677828169
C         4.55262015490844    7.75078993180836    7.44810391907509
H         4.16030639288255    8.24395829498460    8.33737973966810
H         5.01093475766203    8.51325480256263    6.82520119001329
H         5.31829515653949    7.04635086913166    7.76594082054012
C         4.01222713431440    0.03786576662873    4.85915709323671
H         4.77509112615076   -0.65386873158570    4.50176067241434
H         3.04521276923020   -0.43108729932636    4.70318203141090
H         4.16602754739657    0.18552425262322    5.92585324599070
C         0.63517703023754    3.42694590114227    5.75279013696158
H        -0.44083729220124    3.26019965914338    5.73958852075677
H         0.86145060471123    4.24138125754800    5.03889671933099
H         0.90884484081208    3.75525633034878    6.75291979334791
C         1.38090405076480    1.18472846545135    6.54585051914628
H         0.36338994710392    1.10329626659046    6.92810274955586
H         2.01409543562844    1.53778461026929    7.35608613404041
H         1.70658226072588    0.18942859577291    6.26361623425304
C         0.66314693407334    1.52871788584128    4.16386650090925
H        -0.39071564005135    1.37847846889581    4.39689264881709
H         1.08376937421547    0.56268134787520    3.89689390465248
H         0.73277817449073    2.19645057453562    3.30480350246654
C         4.91248922937082    7.99440877931881    3.75945177382650
H         5.60277870012353    8.32901057652985    2.98532705929969
H         4.89170310894047    8.75763182018888    4.53286855475090
H         3.92027430962180    7.91194543642923    3.31920818487920
C         2.44270745942403    8.06968695565708    6.12372700230246
H         1.95140997907228    8.62974458462036    6.91840430569739
H         1.67737013916404    7.56141822675473    5.53813489156875
H         2.94525644180345    8.77760338883817    5.47323746376838
C         5.57859719208779    1.82247872795893    4.11828773900308
H         6.20586702887068    1.11334235183721    3.57898406004824
H         5.96255107684767    1.90171854976252    5.13246873523084
H         5.66178063670131    2.78794996909275    3.62454306103483

