81
CSD_code = OXIGEJ | q = 0 | S = 0 | Stoichiometry = C37H37FeNOP2S2 | MND = 5
Fe        4.91542976736882    5.16423556614972   16.33021794624392
P         3.70315761597710    5.07688296658997   14.54283635218336
S         5.41321964441055    4.84291266351154   18.42050626787956
P         3.72871477229267    6.89435221683766   16.88407160702591
S         5.55739594586638    3.11590071293089   15.89859667954797
N         2.74266544853488    7.62432924806511   14.39595477404612
C         6.78452474379023    2.84744724786221   19.70568912441965
H         6.72033560121441    3.47698170455117   20.58110749021394
C         6.21940927002745    3.29822638079555   18.51577452651778
C         2.05174776908924    6.56529897682776   17.51563821262396
O         7.13724223076974    6.62818824960863   15.19362718938375
C         3.42404863563082    3.01115218362701   12.62867177313938
H         2.44218458451047    2.82479648081824   13.04092457692572
C         6.21998016626918    6.08050048778306   15.62804361932820
C         3.45137840863104    8.14374406174310   15.54287097826468
H         2.87304091220393    8.96506019277260   15.98429393091993
H         4.46068943558175    8.52715312773465   15.28986331153566
C         4.21948850382232    4.02219503734500   13.15383253150014
C         3.52226437114632    6.68073852540386   13.63119636858332
H         4.54791478828680    7.03709824462403   13.41535696958636
H         3.02386652738911    6.48158027998070   12.67589386663301
C         1.97995178676866    4.57394938130528   14.84668244034275
C         4.36339588783736    8.05478400703877   18.13936763614790
C         6.91630430179779    1.27180240710334   17.41585203156249
H         6.95889312232268    0.66992771478012   16.52072999409105
C         6.28385765037878    2.51214629181449   17.36534158271767
C         7.46909053526988    0.83657797407635   18.59838302415272
H         7.95953430903801   -0.12569279867794   18.63600661008244
C         1.97850940329953    5.89798901050001   18.73730474779882
H         2.89621111389473    5.64607220359236   19.25408981558294
C         3.50577401149260    8.87297216279649   18.86994763170712
H         2.43583656778909    8.79261200446022   18.73178121191275
C         5.49683386242741    4.23541300650401   12.64093706798752
H         6.12435971217103    4.99676558601773   13.08470981298984
C         5.96285846893282    3.46126446998048   11.59634038204913
H         6.95462080870981    3.62718007607050   11.20199982552862
C         1.75639570568079    3.80341801408183   15.98448474498534
H         2.59820899093595    3.54304759259881   16.61965906085517
C         5.73716165645832    8.15882393056162   18.32418163735420
H         6.39501113941247    7.51092006404444   17.76176093548015
C         0.48194151753651    3.37740344629925   16.30522764179335
H         0.31806457733513    2.78035099893283   17.19006300726169
C         5.16199693304219    2.46216098618198   11.06510846690692
H         5.52879785888903    1.85105105766232   10.25353637660104
C         2.11976847902965    8.65997683619950   13.58347423529999
H         1.48668384813725    8.15826124088737   12.84439613598632
H         1.46220183056346    9.24153557091127   14.23799115373727
C         4.02273323803769    9.77636810320386   19.77974073181528
H         3.35447810155854   10.40572583783524   20.34972532109968
C         6.24920596868652    9.06589047861759   19.23440117916636
H         7.31697844866564    9.13839351973303   19.37864964192734
C         5.39291053351243    9.87391366894472   19.96354461260486
H         5.79151351723811   10.57838011158413   20.67876761134152
C         7.41101678083936    1.61795683255628   19.75713985445294
C         3.07795416246979    9.61480987374865   12.86088183252519
H         3.73158670989704    9.04405370095132   12.19796217778560
H         3.70479739254185   10.12622405444981   13.59426398362747
C        -0.58327757689198    3.72618497958324   15.49193332932333
H        -1.58284854385516    3.40231548984195   15.74217457252112
C        -0.41273072950678    5.88759375663958   18.59470926870303
H        -1.37367306757678    5.62394210921367   19.01191609160381
C         0.75095730907915    5.56599000983428   19.27600651917440
H         0.69932242201322    5.05250369475346   20.22504432698981
C         0.88306949119493    6.88074960507536   16.83191611821782
H         0.93288297185330    7.37158352290229   15.87272170332097
C        -0.34316616601774    6.54217370264446   17.37668350396280
H        -1.25006171463140    6.78856396354844   16.84331014047063
C        -0.36783109997870    4.48925791680826   14.35555099576675
H        -1.20017686076340    4.75607688856831   13.71995401897934
C         0.90763756262512    4.91089350547733   14.02711189092619
H         1.06593527462753    5.49796383541606   13.13501095492570
C         3.89836802928297    2.23701072984057   11.58393377880670
H         3.27989338839109    1.44919932462655   11.17866352401926
C         8.03516274647448    1.12046088225244   21.02651784388095
H         7.67791006767346    0.11864417179752   21.26089587811317
H         7.80149331370740    1.77993209515583   21.85829744745077
H         9.11869632682989    1.07072122451324   20.91848777051852
C         2.30771995610789   10.64608519917414   12.04668233978576
H         2.99381362622527   11.31894844375048   11.53846189086580
H         1.66170838664741   11.23764768472304   12.69184545842925
H         1.68855681149829   10.15725329102662   11.29746837940334

