96
CSD_code = OXIPOC | q = 0 | S = 0 | Stoichiometry = C30H58B2N3O2Y | MND = 10
Y        -4.60744762932343   -2.07759946196756   -2.80076440841516
B        -5.10265952703370   -0.88993723736998    0.20204592908283
H        -4.98079539880822   -1.47696154919202   -1.12450448405955
H        -5.91217700304978   -0.02843703807285    0.08841049897334
H        -4.01689761594598   -0.48170173796188    0.46988929245902
H        -5.45259380031611   -1.78609001195936    0.89578709792430
B        -7.28360146309682   -2.34167564169552   -4.33188882018186
H        -6.98367921855707   -3.47004175317053   -4.58810754468522
H        -8.11905125012058   -2.25852254905041   -3.49148559210297
H        -6.10638812968910   -1.69462544288960   -3.77550779287142
H        -7.51067215247739   -1.69477025675176   -5.29630661212587
N        -3.15696094581898   -2.69205230829128   -4.50115163086701
N        -2.49423550715404   -2.95839898166343   -2.40972539555429
N         0.23519527168826   -4.26790062281016   -6.78108800796592
O        -3.68564320319251    0.35822268708616   -3.20374853265621
O        -5.41049346174339   -4.40628127142779   -2.06630730629297
C        -2.17653385062994   -3.06360062948883   -3.69110684874423
C        -0.83472024067921   -3.55257809411720   -4.21166667168468
H        -0.10338094506983   -3.55414620484685   -3.40113857096821
H        -0.48445971125806   -2.86141457143628   -4.97973579729379
C        -0.97884091846264   -4.93390238457748   -4.79451001369458
C        -0.48259566600931   -5.25344670555902   -6.06770935773966
C        -0.76310513194302   -6.50845940412674   -6.60245091214773
H        -0.40758677988711   -6.76489067266822   -7.58854389394375
C        -1.48316284521954   -7.44510452883801   -5.88406267805861
H        -1.68703930354023   -8.41207084641164   -6.32002044721966
C        -1.92841887686675   -7.14721716077750   -4.60920631648483
H        -2.48064728233564   -7.87892175959641   -4.03826935001128
C        -1.67726472899089   -5.89452147938671   -4.07803591575831
H        -2.05220741698684   -5.63810375429111   -3.09726173182981
C         0.21226752166877   -4.35447580584631   -8.22333776908977
H        -0.80348204855364   -4.55331276741709   -8.55961677561884
H         0.88321755077183   -5.12610889876238   -8.62788367564298
H         0.52947353763531   -3.39028209854380   -8.62506315581120
C         1.57186087464626   -4.00506100378238   -6.28427837931050
H         1.58258316333899   -4.02951385212999   -5.19819710255535
H         1.89217605809207   -3.01755536179796   -6.62199259109619
H         2.29602048869296   -4.74727498562685   -6.65169020456908
C        -3.11722490026441   -2.85214116068574   -5.94115868633350
H        -2.10175541925726   -3.04392398350673   -6.31223879631442
C        -3.64082338142099   -1.56803479258573   -6.59685813759402
H        -4.63693437560427   -1.35489666291510   -6.19610845699316
H        -2.98323655589369   -0.73570178043159   -6.33094988749624
C        -3.71217530575826   -1.71777629545506   -8.11325484693523
H        -2.70768761828662   -1.89187870334653   -8.50886757104264
H        -4.09228087934205   -0.79567206275175   -8.55838828312929
C        -4.61449010980043   -2.88779585196848   -8.49019048919360
H        -4.65731325509443   -2.99308615305058   -9.57681148473763
H        -5.62576831499188   -2.69351619796677   -8.12792502050351
C        -4.09538699356901   -4.17537876108483   -7.85992472565357
H        -4.75241484280152   -5.00948157214124   -8.11575574414448
H        -3.10137125176128   -4.40181458755597   -8.25510502302637
C        -4.01383440243776   -4.03305902433878   -6.34449738896145
H        -3.61506031950254   -4.95190690387759   -5.90585237793284
H        -5.01339099969712   -3.85740916853494   -5.93570441270993
C        -1.59202460135415   -3.20447228356679   -1.30480539122670
H        -0.76977946998110   -3.88731591768739   -1.57515043989618
C        -0.99854926721936   -1.87111820348458   -0.82364390130220
H        -0.39565253513667   -1.43539858773776   -1.62674607110621
H        -1.83343957326397   -1.19521278124221   -0.61470718936055
C        -0.15221118274133   -2.05148404146832    0.43213808643152
H         0.70558556966003   -2.69154014676422    0.20637971783175
H         0.23271519068483   -1.08279679057800    0.75978679868819
C        -0.98084205034385   -2.68746980985852    1.54309563469377
H        -1.81471463888554   -2.02925212544163    1.79432532244820
H        -0.36808251791540   -2.81816832261079    2.43786964558113
C        -1.52842306125244   -4.03335903715016    1.08054960518673
H        -2.12422716133000   -4.48558780723322    1.87588960110752
H        -0.69672424431643   -4.70887345214996    0.85981209259150
C        -2.38955589884985   -3.85220593246436   -0.16554085170641
H        -2.77359294590126   -4.81845315683010   -0.50410330231550
H        -3.24312231185584   -3.20875882524281    0.06642850237725
C        -4.18760763954538    1.52857233025090   -2.55817546651576
H        -5.09290171105520    1.26047389322271   -2.01119962938498
H        -4.41763010259509    2.29040789932322   -3.31742709862346
C        -3.04589282378968    1.98731582268176   -1.65033248094097
H        -3.09830476281978    1.44223661621354   -0.70864235853961
H        -3.09071148965739    3.05374100865574   -1.44326821402421
C        -1.79285539548541    1.58700560565502   -2.44540288973344
H        -1.08477390802494    1.05003500031476   -1.81811606187900
H        -1.28786665242511    2.45492257196818   -2.86689393853730
C        -2.34501438652740    0.68348109688594   -3.56397201960292
H        -2.35392302995167    1.22213508250476   -4.52281677686914
H        -1.79753165600603   -0.25360723008359   -3.68182933255749
C        -5.16065930889655   -5.63802418459322   -2.74788490999503
H        -4.49846205614558   -6.26609694593334   -2.13282763167311
H        -4.66624827365039   -5.40881646657797   -3.69479089285053
C        -6.52592779640860   -6.29423976727314   -2.90171541297972
H        -6.46140920737915   -7.36245253018533   -3.09385280100890
H        -7.07779133162116   -5.81035111086522   -3.70788775787316
C        -7.15855559573065   -5.95784682093159   -1.55338886649209
H        -8.24491924203352   -5.97113602609723   -1.58215019851120
H        -6.81787413197506   -6.65939385889928   -0.79048547889005
C        -6.61269340121027   -4.55337503931190   -1.28114444491771
H        -7.32057483816831   -3.78181187004421   -1.60618857577775
H        -6.36423404710666   -4.39389804593346   -0.22626182047441

