41
CSD_code = OXIPUI | q = 0 | S = 0 | Stoichiometry = C16H15CuF3N3O2S | MND = 4
Cu        2.86266848045423   -1.24886622102082    1.04874814780743
S         5.06236781205087   -6.44351799724482    0.36284142805952
O         3.24099185197024   -3.12291795654952    1.46901923227901
O         2.16375201156658    0.48931927473078    0.04181802298000
N         2.36762499956093   -1.95605464031931   -0.93235165271030
N         1.81066984118790   -0.95170294275062   -1.66020998532034
H         1.37346659614573   -1.14165836760317   -2.55585533697513
N         3.32500029914377    0.00598753984894    2.72157911314016
F         1.61565867931408   -3.21298550858956   -3.48048581085271
F         3.49287075665529   -4.25949612830891   -3.44983926923794
F         3.45782229192337   -2.11672420068227   -3.60541839018544
C         5.71480885430728   -7.14772046677872    1.78582831746042
H         6.24562808501095   -8.07660628187926    1.71643400298314
C         5.46333052505011   -6.39858283213081    2.89283054999837
H         5.78898676655271   -6.66904991326335    3.88169164735379
C         4.73027087052666   -5.23565347933836    2.59871219566665
H         4.42117400873224   -4.50748006976370    3.32609635999891
C         4.42833405519056   -5.10342616038132    1.26703425434530
C         3.66860760912661   -4.00643207682237    0.66768341953088
C         3.48801933038534   -4.03917160362422   -0.72788680978453
H         3.88953067363932   -4.88254475781228   -1.26509246545793
C         2.89270152033198   -3.02688672140288   -1.47300608473587
C         2.87961590597629   -3.17120142093716   -2.98540100197935
C         1.64302885123789    0.24571867215357   -1.06183872587345
C         0.82442060162652    1.23974562446823   -1.77474841151861
C         0.65127538421642    1.23640194468566   -3.15866470421460
H         1.14114537717464    0.49894409214613   -3.77775240316155
C        -0.11867123519621    2.20984901365754   -3.76567770744187
H        -0.23871629530092    2.19724707078054   -4.83939917078606
C        -0.73598792987220    3.20803414263903   -3.02096075731933
C        -0.54956870925628    3.21654189524286   -1.64170831370496
H        -1.01509797957288    3.99013308718425   -1.04813983323404
C         0.22309984255553    2.25406261177256   -1.02794253218465
H         0.37217287550258    2.26115844869962    0.04093872319706
C        -1.59091682689730    4.24527837182051   -3.67899181746034
H        -1.37984296038495    4.30791742074768   -4.74342854540402
H        -1.42948845045736    5.22173157273956   -3.22722870297221
H        -2.64399279006137    3.99075146984338   -3.55513075709346
H         4.30354103842254   -0.04936523124868    2.97016537487914
H         2.75127372640664   -0.23890411286276    3.51739185330793
H         3.09702365504767    0.93722683809316    2.39604654664329

