85
CSD_code = OXIPIV | q = 1 | S = 0 | Stoichiometry = C32H40AgN12(1+) | MND = 2
Ag        2.86464192265701    3.21047086292245   13.48809730738437
N         1.46503622632629    3.56728725240068   11.43103273240818
N         1.47554682053496    1.26429126192062   11.58024813852990
N         2.68984856103322   -0.04936835800093   12.76780358034346
N         0.96178092750178    4.71465764894937   11.07760107499411
N        -0.67813238710286    5.99031219985767   10.03781431822486
N        -1.84738061216205    6.04546752949573    9.35863255343613
N         2.35410708882056    3.60136517055284   15.91951629716624
N         3.82572820596775    5.32455139664304   15.48083542837319
N         5.11774334677630    5.65964953028449   13.79884556713802
N         1.37638059878881    3.03336240042599   16.56452122923382
N        -0.22791039997354    3.02696790949029   18.24531651472416
N        -0.83090190828310    3.66591566915517   19.27466297538007
C         2.31982863810629    1.23569442083817   12.64571825233866
C         1.31935790948338    0.00338063305314   11.05612890768898
H         0.71969528867493   -0.21132826719319   10.19696533130768
C         2.09035647571548   -0.81732991596640   11.80389892989516
H         2.23680460781139   -1.87097594478114   11.70369002367717
C         3.56922042439303   -0.52470330003077   13.84132461790572
C         3.85490287077537   -2.01703550339196   13.68241897362775
H         2.94447738777805   -2.60592174583514   13.76385763712506
H         4.52620226987525   -2.33419046667877   14.47548914440761
H         4.33839974054505   -2.22729280081141   12.73113656332088
C         2.86343996338783   -0.26727302074577   15.17536522105619
H         2.65843319011783    0.79645027504536   15.29529290577428
H         3.49298697538460   -0.59856821801329   15.99583015889922
H         1.92407888166972   -0.81417273745849   15.21651696492415
C         4.88456649363842    0.25525371232522   13.77557867350152
H         5.35756011729897    0.12825706039514   12.80446321718547
H         5.56474275718688   -0.10428300640098   14.54159044039663
H         4.70011336344795    1.32090955545857   13.94464903852514
C         0.85675931057241    2.42845751646294   11.13010130472767
C        -0.34766154812677    2.39849315020284   10.40519786473272
H        -0.83847931234997    1.46717824782968   10.17184978459199
C        -0.88046190779599    3.60011633241609   10.02427633754301
H        -1.79750504653977    3.69418656226588    9.46729321865575
C        -0.17669406481385    4.76849319796366   10.39561527936455
C        -0.17219180105222    7.25344727883401   10.26036189666929
C        -1.06567544052138    8.11863544731872    9.69601511959725
H        -1.00712136378345    9.18711196583395    9.66965078694359
C        -2.09810627943698    7.31313261022154    9.14357317836502
C         1.10395948931725    7.51416464516281   10.96257875733716
H         1.25945289240644    8.58721887184909   11.03479588919156
H         1.93194377372246    7.06392952635433   10.41834667230630
H         1.09205207568852    7.07803985249541   11.95942677287829
C        -3.30487443633458    7.77168533575269    8.41658264231566
H        -3.01557192007353    8.32621699686720    7.52526458347467
H        -3.89370449043881    8.43489333659441    9.04812777077275
H        -3.90962802676792    6.91738820198563    8.12781478351898
C         4.06505221158089    4.92983285962603   14.20183121670325
C         4.71933665760129    6.29797322609447   15.85906270725335
H         4.73745813120363    6.74026565786042   16.83263462013965
C         5.53293053893517    6.49993701854821   14.79870909839209
H         6.35586554260077    7.17529649728537   14.70751314510398
C         5.67180978690963    5.57437867351626   12.44329355714915
C         6.08250188107759    4.12455761726044   12.17479849816963
H         5.20621214161877    3.47007649392527   12.21941719761385
H         6.81116871707618    3.79004554798153   12.90967334868243
H         6.52516772176157    4.04390073216845   11.18674216052018
C         4.58094369332878    6.00965769546275   11.46125063694968
H         3.70800960842864    5.36397627479280   11.55552041172607
H         4.95487511726461    5.94857528882341   10.44357576834609
H         4.28288666794347    7.03667105331045   11.66002396259585
C         6.89158381999424    6.48317466849617   12.30173651261421
H         7.29177848855604    6.38272286489618   11.29676128725334
H         7.67492175475056    6.20448926894370   13.00284837518110
H         6.62735312534765    7.52742652111669   12.45028991795326
C         2.79146831360529    4.80640221492997   16.25709608562672
C         2.23724970438798    5.52353085627968   17.33219431144084
H         2.59494289679392    6.50635795602414   17.59443127918826
C         1.21307362382259    4.93107580430535   18.01971262673430
H         0.71577515802827    5.38965990141690   18.85783629740479
C         0.79705953691397    3.65095966062438   17.58778799047629
C        -0.79110708343145    1.78680749156904   18.03135836664988
C        -1.77939925648204    1.65906776145117   18.96537615237547
H        -2.43486890973415    0.82483553497366   19.10744923679431
C        -1.76492278045596    2.86293184357931   19.72064214907756
C        -2.64528908229974    3.22313174749369   20.85653987956513
H        -2.36886668994803    4.19917205613447   21.24353229139823
H        -2.55659100841411    2.48150172640419   21.64843710005813
H        -3.68440387118128    3.24548375071706   20.53220930331537
C        -0.33133919497800    0.84656774747319   16.98530534980541
H        -0.95416650018720   -0.04364891331489   17.00606505284647
H         0.70602263707465    0.56717362666474   17.15927773482164
H        -0.38514074934934    1.30794099285477   16.00125100815539

