49
CSD_code = OXIVIC | q = 0 | S = 0 | Stoichiometry = C14H20CoN9O5 | MND = 6
Co        5.11268949957729   13.92573029863779    6.24343397484491
O         7.65653343940185   12.95516514168877    5.81709065497083
O         4.00301842376191   16.35621226262085    5.58330607161047
O         2.37263499255936   14.83581879653286    6.77188836624082
H         2.89365257310465   15.57567953267533    6.24500580806256
O         6.18035139088236   11.30763793523163    7.03576377457729
H         6.91171349932476   11.84441809533753    6.50954808186406
O         6.14309890722913   16.84158886083525   12.42585455206956
N         6.82884284468499   13.90523543632637    5.53622309158682
N         5.02380376793724   15.58624641407187    5.42067877064524
N         3.27577475312556   13.84250004213519    6.89994414249907
N         5.11431544108316   12.13506408381039    7.02442968506514
N         4.52240445845293   13.17780716393117    4.63322599509377
N         3.73750515314978   12.32429988112551    4.46836229881741
N         2.99566365360468   11.51006045690469    4.19591397231874
N         5.77438610800495   14.74968159743287    7.89455514483746
N         8.28628488525510   16.29289164455031   11.99796388209795
H         8.58756945523635   16.69455785980935   12.87073321780190
H         8.98453711531052   15.98951139476616   11.34366797666012
C         7.10600365463674   14.90556725668488    4.76041681675868
C         6.05410721376446   15.88623289492744    4.69377811166321
C         2.90887714236968   12.70368391435187    7.38027271398646
C         3.97329578338011   11.71565657678276    7.45322127986105
C         8.40869587865128   15.04645354581564    4.04366634874928
H         9.02291288282565   14.17460686801137    4.25637757303313
H         8.93269243814572   15.94503280664610    4.36669461542062
H         8.24090737581012   15.11423298305277    2.97055785184626
C         6.15478506177525   17.14954078958124    3.90362984215560
H         5.22874399619966   17.70841222793375    4.01594200768055
H         6.31253257510831   16.92307569104278    2.85097185410755
H         6.98753611660366   17.75866319787296    4.25270885469266
C         1.51413891762847   12.38376539645704    7.79459948780393
H         0.91318103113255   13.28949352468577    7.77659279755137
H         1.49496129247861   11.94888138584728    8.79154420832237
H         1.08656177165083   11.66484086092698    7.09623646269313
C         3.72520996620423   10.33514085099721    7.95574149201619
H         4.64040401116266    9.75332153117253    7.88198794655318
H         2.94985980180001    9.86129478929605    7.35638626416861
H         3.39385205241107   10.35701465415599    8.99272126728468
C         5.13874252602657   15.78187610556344    8.45542384669829
H         4.30849752740504   16.21017542956404    7.91023795249696
C         5.51089836250676   16.31859065275366    9.67216511830336
H         4.96432651696209   17.14271671374389   10.10221462665200
C         6.60282304873833   15.78648158775686   10.35169294335703
C         7.26637370747488   14.71585377026340    9.76086401675377
H         8.10423850001266   14.23362039804415   10.23985547001522
C         6.82026547040491   14.23463650268534    8.54432292819358
H         7.34147015696371   13.41206343233511    8.07317977226142
C         6.97172485808111   16.36066676262299   11.68640606725666

