27
CSD_code = OXMTMI | q = 0 | S = 0 | Stoichiometry = C4H10N8NiO4 | MND = 4
Ni        4.98341028383423    8.17383001667230    5.90430740101956
O         3.22939971666088    7.71640746669261    8.25078890129375
O         4.81736935088708    6.95059036715883    3.35659163851431
N         3.54772826406203    7.46574662310899    6.93435417210634
N         4.33903162158019    7.04766408777349    4.56313245008637
N         1.82101329167583    5.88138558427058    6.84483713317761
N         2.68618300892588    5.42590511619602    4.08933983874173
C         2.87222859948169    6.55264264335581    6.30398259073770
C         3.29624187166216    6.34981356792530    4.92354561008083
H         3.92729193015777    8.42417080116346    8.52618478998000
H         1.72159745031812    5.99243587157575    7.84354098054217
H         1.58964385345549    4.98174967448278    6.45983065214103
H         3.07738486237108    5.49310991269969    3.15498753597965
H         1.67666449812400    5.43181393414541    4.09604701689859
N         6.41907366680587    8.88193469101095    4.87424938166624
N         5.62778767360166    9.30000157429446    7.24547786086941
O         6.73739853949990    8.63128354810550    3.55781175012844
C         7.09451543517785    9.79510399996107    5.50459220615170
O         5.14944497593596    9.39708428859075    8.45202074451384
C         6.67051372416710    9.99792866577725    6.88503402491382
H         6.03952417478996    7.92350557268412    3.28242187039610
N         8.14568642809702   10.46641113557837    4.96371196454622
N         7.28052859573271   10.92188487410234    7.71921959302720
H         8.24510122866822   10.35532832810760    3.96501261996362
H         8.37699665041506   11.36608307967412    5.34867991026149
H         6.88944978252725   10.85459601058336    8.65356481559036
H         8.28999052138508   10.91608856430913    7.71243254667196

