57
CSD_code = OXOCOV | q = 0 | S = 0 | Stoichiometry = C28H18Br4Cl2N2NiO2 | MND = 4
Br        0.31103143719118    4.68758707636879    0.18036435940950
Ni        3.49990868004244    6.30966896756168    6.20406771672343
Br        0.37854338447416    3.04146209466245   11.92738787318262
Cl        1.60580049891852    7.56778326070767    4.72115587428140
O         2.84331605680825    6.73823759755636    7.90295944396003
C         0.84848126857036    4.77572775415740    1.99969140288724
C         0.96459406819430    6.01608097850015    2.60713324667089
H         0.76240601496795    6.92702316429134    2.06768130918494
C         1.36597213213158    6.05390825913753    3.92606979518753
C         1.63875250553954    4.88431403314848    4.65153105986282
N         2.05053392791988    5.04403397770704    5.98174251018110
C         2.31734593625557    5.91341472787717    8.72317927622114
C         1.60836918453746    4.73342021550433    8.32255427645737
C         1.40611241249143    4.46682952226693    6.94209862534169
H         0.59429493587686    3.78150673516750    6.69504775308645
C         1.14443610449747    3.60910910857768    2.67983865362384
H         1.07385512657007    2.65960269269049    2.17146549409935
C         1.54496606244047    3.64360796638467    4.00963410195661
C         1.02233859683396    3.90148544577999    9.29044021372779
H         0.48823271101756    3.01796161685962    8.97327098727790
C         1.14699505008428    4.19772145012250   10.62084252508540
C         1.82775780696097    5.34628862177851   11.04124235068648
H         1.90826398100256    5.56369360260789   12.09561592917623
C         2.38491485668272    6.18397489049093   10.11760454317134
H         2.90591996490092    7.07851189297295   10.42331067546593
C         1.91598864791084    2.36829449421581    4.70302657468843
H         2.33661147322053    1.66609965874177    3.98724835515423
H         2.64889117968187    2.55179427704096    5.48569983258845
H         1.04001267482358    1.89873356483757    5.15108084139829
Br        6.68876565691025    7.93189471463554   12.22774717062529
Br        6.62131247207066    9.57771487970538    0.48069900302687
Cl        5.39403391025453    5.05159517834444    7.68701608945174
O         4.15651470497363    5.88105856887046    4.50519160905574
C         6.15135967418988    7.84373048995247   10.40840227353117
C         6.03523590668205    6.60335528895804    9.80099826164885
H         6.23743128739591    5.69242359262687   10.34047396449300
C         5.63384547157197    6.56549263854077    8.48206654650558
C         5.36105695497934    7.73507120172565    7.75657577408699
N         4.94927489984572    7.57531974542051    6.42636806767627
C         4.68247620305860    6.70586574688697    3.68495370939717
C         5.39145048631234    7.88587053175636    4.08555642581613
C         5.59370398225862    8.15249569813761    5.46600548236328
H         6.40551872290693    8.83782925520682    5.71304634057874
C         5.85543521865112    9.01034796763156    9.72821015589382
H         5.92592529936167    9.95984398754763   10.23659150458022
C         5.45488014040912    8.97580823746269    8.39842483668293
C         5.97748663312154    8.71777819847837    3.11765785833804
H         6.51158692410700    9.60131614705553    3.43481043580633
C         5.85283825083864    8.42150135524673    1.78726245115222
C         5.17207448531246    7.27292493270142    1.36688151603567
H         5.09157086823137    7.05549262491090    0.31251167337576
C         4.61491027607673    6.43526626538295    2.29053344864512
H         4.09390601304155    5.54072047187505    1.98484422263985
C         5.08373418186001   10.25106010620283    7.70505605702394
H         4.66324810275119   10.95333424715863    8.42081067793034
H         4.35071058063158   10.06745933454956    6.92267577514542
H         5.95946601164576   10.72055094530888    7.25674306775453

