70
CSD_code = OXOKIW | q = 0 | S = 0 | Stoichiometry = C27H33BIrN7O | MND = 6
Ir        3.12482834132420    2.89679174331502    3.76467414133703
O         2.88144992485610    3.83374868487998    5.69782825864538
N         4.46100913402423    4.15759387096475    2.77434299853883
N         5.44898190662690    3.63590319108967    2.03253022664599
N         3.13580257404584    1.72748434630443    2.10909240088962
N         4.30075987927243    1.50230968482884    1.47370928223878
N         4.99058576721866    1.82703470063079    4.36789877028912
N         5.88206855931500    1.61072453805362    3.38739470856619
N         2.11061111010542    2.82944873816226    6.07151279674848
C         4.59612336260066    5.47755454107565    2.78533343812603
C         5.70956181471487    5.82035667632456    2.01122879731746
H         6.08509553119915    6.80498356341676    1.81838710241616
C         6.22760546040169    4.62383529253099    1.55216788722982
C         3.67945016875731    6.37813544999624    3.53038107337509
H         3.28780527236824    5.86126295558465    4.40304252583792
H         2.83788499435977    6.66876949800929    2.90229627419129
H         4.20947639054746    7.27581175612544    3.84111148942246
C         7.41679185619787    4.39557860124874    0.68957247324366
H         7.83606125442026    5.35228347977714    0.38952633796389
H         7.14442817563193    3.83357383662004   -0.20206809470095
H         8.17913633597512    3.83108583427087    1.22458309796717
C         2.17320658534927    1.07715156755314    1.45415593653268
C         2.74474547747526    0.40864213858680    0.36920561575086
H         2.23770938866239   -0.20274789839757   -0.34910517270170
C         4.09390171855984    0.70113198076449    0.41357200840781
C         0.73054134486894    1.09791714161744    1.81097143667728
H         0.58795684227375    1.52744078246496    2.79598157934562
H         0.32590250063507    0.08789096862392    1.78091361953249
H         0.18303222890125    1.70529777235655    1.09135600650327
C         5.16476943895858    0.24313570928187   -0.50993294801652
H         5.92267448807682   -0.32274912141116    0.02850970623469
H         5.65209135584743    1.09119788547526   -0.98715080421436
H         4.73126364647104   -0.39163450818086   -1.27800378518351
C         5.49982612279831    1.34219893549090    5.49395487537571
C         6.75731358236029    0.79201095594248    5.23056987849303
H         7.41865076535497    0.32420792874182    5.93178940190115
C         6.96654960063686    0.98305979865887    3.87829515487509
C         4.81758243392430    1.41054635483994    6.81403819114362
H         3.91513949996355    0.79924787104361    6.81703046067919
H         4.54349366054560    2.43957349194461    7.03707769912170
H         5.48720865744745    1.04825844039172    7.59063891598232
C         8.14544668610445    0.59126710920357    3.06179000407405
H         8.61910507575482    1.46687463363760    2.62090999119849
H         7.85123456044840   -0.07638930062247    2.25377096348052
H         8.86891340347566    0.08208647668066    3.69329278790299
C         1.96506557200256    1.91711261564246    5.07863046226332
C         1.21140309485196    0.79293130975403    5.39352343870465
H         1.08153620873167    0.01964827110118    4.65261624343145
C         0.63364520788544    0.65756942252517    6.64674882146972
H         0.04947855793872   -0.21827257885294    6.88662772943676
C         0.80156498498569    1.65590812010590    7.59496986822388
H         0.34896927827899    1.57774529643077    8.57075406771996
C         1.56582150276938    2.76860617226185    7.29083615549177
C         1.83269007564519    3.90451505547933    8.21722968055152
H         1.19656789130653    3.84835660704567    9.09546679854415
H         1.66396183546605    4.84513907635952    7.69367360290694
H         2.87701577532710    3.89555303683432    8.53027543058225
C         1.53414893234966    3.95782003091040    3.02753188184760
C         0.43334368675154    4.36903711883471    3.77778924078902
H         0.33135876060007    4.08114930742215    4.81529703200717
C        -0.57266706654768    5.15557087937998    3.23856691657139
H        -1.40664003134926    5.45506657817299    3.85893330041801
C        -0.51527156810567    5.55564098436321    1.91734342337777
H        -1.29778397457186    6.16930446139120    1.49396484485254
C         0.56114106336035    5.15606958601016    1.14569526933865
H         0.62414197187692    5.45760690458396    0.10852115229922
C         1.56276155589103    4.37346251296958    1.69388565083382
H         2.38475661491945    4.08858224172494    1.05080177919585
B         5.62555401128451    2.11479136601311    1.95966256653593
H         6.51195917949136    1.82369752564008    1.24037713322638

