90
CSD_code = OXONEV | q = 0 | S = 0 | Stoichiometry = C46H32F4IrN3O2P2 | MND = 6
C         4.86196035975322   14.96758875041665   13.46704359973428
H         4.85722663109708   14.23797139671503   12.66902446810449
C         0.46868909638699   10.12384096334098   14.93498680070686
H        -0.02710583949318   10.35399708321941   14.00256332715859
C         4.00291277762257   14.78960547852438   14.54178830050242
C         3.98028921743089   15.71435807908786   15.57354364352008
H         3.29397772063665   15.56468698458644   16.39347067256845
C         5.03890541768321   11.12861351653867   17.17750430627412
H         5.47109650318005   11.27253567187688   18.15733967853057
C         5.11904738833243    9.89002605491364   16.56014086026868
H         5.61252258269861    9.06947834852002   17.06051945783535
C        -1.16945698986715   14.18495830044259   11.44903066484727
C        -0.73709826386376   13.48737050543448   16.74488315549139
C         5.69305847551230   16.07146436100199   13.41999372280724
H         6.35511653769736   16.21696708421839   12.57924622327516
C         1.70182337490312   14.46955531391772   10.75449320435941
C         5.67051132172104   16.99453128820388   14.45341310930793
H         6.31932337094231   17.85754632795735   14.41808448569336
C         4.81689045990832   16.81525954884254   15.52981116823182
H         4.80339705076851   17.53681609601920   16.33438405654477
C        -1.86959571650380   13.04622856581527   10.97415615166621
C         3.39111426023351   16.13397099255437   10.26659897765319
C         0.57087592783736    9.63401422019856   11.17689198122504
H         1.26547237884170    8.81237723622015   11.24713076544277
C         1.99026915134676   13.87067987378479    9.53421288274876
H         1.46822821557644   12.98427885090158    9.20822521003889
C         0.51030530729600   15.98918700772667   14.15079254616074
H        -0.29645144250627   15.41286114549259   14.58282112337927
C         0.86903901323310    8.83224599037910   15.22907781195784
H         0.69360786659689    8.03711744254468   14.51807701193926
C        -3.10324013141239   15.52013436500796   10.94432768042437
C        -0.72863770767018    9.44639796040735   10.73032024078920
H        -1.07838964552394    8.46565624790567   10.44603353233689
C         0.69657580979864   11.14253278095216   15.84515477288661
C        -3.80904765474486   14.42508239393577   10.47998497321457
H        -4.81713205161309   14.51835984945882   10.11179410662071
C        -3.17338146285119   13.20031941360988   10.50434391938366
C        -2.84064514293840   13.36539770387308   17.88981151809942
H        -3.81899565378716   12.92294624181919   18.00975484498351
C         3.93368909886126   10.75252096226750   14.66508532754121
H         3.50011741887634   10.62144129337326   13.68431336974313
C         4.40197215199766   12.17633783316462   16.54044683407386
H         4.32074003521072   13.14638879988544   17.01023478050606
C         0.96289345123853   10.90895745726446   11.54147745790851
H         1.96309418881300   11.10620322531299   11.89937648835159
C         2.96217075529783   14.40794488518201    8.71042276513297
C        -1.11347471316137   11.79939575163306   11.02495527732770
C        -1.80994885024286   15.41833641927696   11.42200254500441
H        -1.31634284998830   16.31307411525341   11.76781228545022
C         2.40913284511575   15.64073310376516   11.12396775627661
C         2.48747329361488   17.41335416429033   12.94870821955541
H         3.26590187490381   17.96878230288121   12.45651046073899
C        -1.57400643266965   10.53814772688899   10.64911471034254
H        -2.58349904629377   10.40764064051488   10.30057678655298
C         2.00463082593703   16.22804522318672   12.39707550406774
C         3.84909364971792   11.98990257944886   15.28176949002885
C         1.49457147576424    8.56143815492070   16.43409179725495
H         1.81222257724509    7.55450365940084   16.66283149971704
C        -1.99245123913984   12.91706800215257   16.89410381831414
H        -2.29099150657857   12.12681191706881   16.21874997008809
C         3.68461869489175   15.53464281025181    9.05795440217761
H         4.44922866100833   15.93502442241426    8.41311420135474
C         1.96547008755296   17.87066503301796   14.14420268837785
H         2.34053662446584   18.78116724885176   14.58587574796023
C         1.71379734858047    9.57876412427114   17.35052727358485
H         2.20020959219151    9.36310577789271   18.29066098846446
C        -0.33033882380213   14.50744100255326   17.58888469664918
H         0.65210253721109   14.93331565103541   17.44894633674232
C        -2.43210510863737   14.38443264344443   18.73619534400366
H        -3.09351020656552   14.73407923807539   19.51565409039243
C         1.31704318274871   10.86862080226948   17.05604111619621
H         1.48833833043357   11.67811847660932   17.75227209419957
C        -1.17923008063901   14.95628021773403   18.58520060976305
H        -0.86570985116001   15.75091489222783   19.24735978402443
C         4.56787501115249    9.70238776299672   15.30416994170288
H         4.63081342654162    8.73629943301118   14.82435137745920
F         3.22710575257902   13.81206202755077    7.53086064641663
F         4.11363129086978   17.22981188008050   10.58919925676394
F        -3.70403568381816   16.72608838510227   10.92735806811036
F        -3.87768099514554   12.14212880473087   10.04543254569449
Ir        0.60735325554587   13.73480759969111   12.26002499020156
N         0.15193111180384   11.95857009347042   11.48081393435141
N         1.03345789182454   15.52646292156307   13.02217891720612
N         1.68669532560242   13.76214666297025   15.53324437197605
C         0.94524024347679   17.15532250748205   14.75198086906578
H         0.49407584889489   17.48732925811841   15.67293660395059
O        -0.41207533200648   12.91985202239686   14.10439997243364
O         2.54709797534111   12.96068057232527   13.12180386238048
P         0.32783626636756   12.87186331128019   15.41365353485200
P         2.89978010388426   13.35012676307885   14.52979963285174

