96
CSD_code = OXONIZ | q = 0 | S = 0 | Stoichiometry = C48H34F6IrN3O2P2 | MND = 6
Ir        4.09372796284193   12.37107696319436    5.86980936880255
P         6.43338047780517   10.60045431138978    7.28003903152125
P         6.41944645682186   10.53083627094682    4.46241869446262
N         2.79951907118931   11.07290570742732    6.64857109102893
C         5.54816257766651    7.95375363955648    6.80308524493207
H         6.14314340458659    7.98810798526739    5.90076303704950
N         5.37908813267771   13.68157676385000    5.09280839918165
C         2.97366335149853   13.04813892060417    4.35110842416616
C         7.31331989701683   11.64426213863468    3.33083085231859
O         5.48952213944733   11.74612487363049    7.52105424459616
C         1.68154841930165   12.68235380182550    3.99231119922168
H         1.09903946272025   12.03372170998918    4.63043669164068
C         6.67754155581132    8.91561691467689    3.65756801625817
O         4.94585465261728   10.82592424763385    4.46055324308496
C         3.21637434359863   13.56936703031004    7.21664483648452
C         5.02754189131638   14.25080242512820    3.91787686979226
C         1.11369770447562   13.14525306074355    2.81187842059855
C         7.74908669109547   10.63971160312437    8.52189804043170
N         7.22911628877756   10.56517700761797    5.86794239553350
C         2.35597379212084   12.87568955213858    8.09747056103185
C         5.52366878835259    9.05397940887607    7.64214495465151
C         2.85892945787238   15.54895892908673    8.55240468054265
C         2.14488800906842   11.47067834093121    7.76282586963889
C         3.45410441577665   14.91519785907205    7.46941971615095
H         4.10371042438224   15.48672549254390    6.82284926565518
C         1.82201419940211   13.97648228677051    1.95234715056734
H         1.36838705945991   14.32101319680784    1.03597284983404
C         8.61291972483145   12.04872112520746    3.59141652005695
H         9.08042203547230   11.73343108821284    4.51268162690361
C         2.01924735916499   14.85641400303642    9.41735044352348
H         1.56931406501378   15.36473107516944   10.25613048574274
C         3.68056707355092   13.90398685943287    3.47648374705404
C         6.68271403041954   12.04021237008782    2.16034870532407
H         5.66743569353434   11.71644777064279    1.97599403261968
C         3.10503296867925   14.35562543734331    2.29107618599380
H         3.65491042920928   14.99992139287381    1.62279646521313
C         2.65285219472516    9.82505916658821    6.21596766397846
H         3.19026817175704    9.56582383604032    5.31492061603603
C         7.74457893396742   11.60646223290264    9.51401499675736
H         6.94351492991727   12.33222813630620    9.53430572099533
C         4.77099516310994    9.02150060381909    8.80887201689323
H         4.76196035243631    9.89205915096440    9.45027433764889
C         1.76869064048043   13.51976414645587    9.18430756632222
H         1.11698240802284   12.98390314196386    9.85681322727867
C         1.34248851821207   10.57894675051973    8.47030402022466
H         0.83429435685471   10.90363493368099    9.36346111121904
C         6.57829224335497   13.93253263881207    5.60593310337218
H         6.80745317162511   13.45810401382456    6.55002050886301
C         1.19909681625941    9.27969875400568    8.02080922481889
H         0.57857737928481    8.57869748295431    8.55776977539126
C         8.75801457045142   11.63188852045444   10.45646803404519
H         8.75881432417273   12.38592465111856   11.23041614899329
C         5.90952588397324   15.09058115146698    3.24367006832456
H         5.61884589887588   15.53818482935389    2.30772126424007
C         8.16122949116015    7.11225177299862    3.11201893425176
H         9.14262324621845    6.66141906541621    3.14734906256197
C         7.49946779815638   14.75624331126923    4.98610632895730
H         8.46086611570231   14.92856210192235    5.44158222689939
C         8.76261734473181    9.69427048330525    8.47155014214956
H         8.74684987786349    8.95174230554579    7.68674617596258
C         9.27966893451654   12.85114979160863    2.68308830465549
H        10.29381549203151   13.16671231419179    2.88244410927607
C         7.94113653307849    8.34322139808141    3.70084343373098
H         8.73355909370437    8.87165282908705    4.21179494530963
C         1.86105732538288    8.89597053682465    6.86376167570319
H         1.77066668670637    7.89615539286530    6.47203814979433
C         5.63764817502748    8.26034072376948    3.01699089520550
H         4.66145203833106    8.72324473563291    2.99016246368252
C         9.77122614012003   10.68904619477478   10.40520120482840
H        10.56257803928813   10.70804204960650   11.14061206673921
C         9.77453290150189    9.72048371886858    9.41274867363061
H        10.56765412708606    8.98734247073747    9.37745213132681
C         7.15771425124531   15.34664206975784    3.77914048305001
H         7.85120873512934   15.99531076069257    3.26660849795807
F        -0.91523196998529   13.56690931734552    1.64859744233011
C         8.64882609064391   13.24729759989135    1.51472627916568
H         9.17250887102727   13.87044496452273    0.80413232480635
F        -1.06161356447145   12.48686630077073    3.50161800168482
F        -0.25416496030542   11.52599370548623    1.75880692838270
C         7.34890358766523   12.84464389173493    1.25398500260772
H         6.85873425974217   13.15340419417378    0.34182413734549
C         5.85915095175055    7.02804196565643    2.42710574116657
H         5.04971632627542    6.51376432262792    1.92901055812003
C         7.11911149754323    6.45464173221142    2.47583950398678
H         7.29107549638278    5.49169161746076    2.01709283016499
C        -0.26851656131779   12.69429253984983    2.43760174802498
F         2.10668456935277   17.66091948008290    9.33176176222599
F         4.14950939430691   17.13859926964465    9.73960317085372
C         4.04147900693628    7.89282417729840    9.12995277625665
H         3.45762939954876    7.86561507791946   10.03887181799407
C         4.81365451135659    6.82448785166279    7.12173823424273
H         4.83179116514918    5.96753323207047    6.46361091907451
C         4.06181103562599    6.79399575658036    8.28438032576059
H         3.49164213217449    5.91108743434403    8.53504969308907
C         3.16014972839846   16.99320339671162    8.83142540461449
F         3.55721672014020   17.67406243995870    7.74526472543702

