27
CSD_code = OXOXNI | q = 0 | S = 0 | Stoichiometry = C4H10N8NiO4 | MND = 4
Ni        0.00006919254042   -0.00003546373988    0.00000741780695
O         0.43047885329544    1.75765190259735    2.34896015397237
O        -1.25694729582082   -2.53628344317198   -0.05442286919829
N        -0.08162403027042    0.60069065316765    1.80420422757243
N        -0.74331748318696   -0.08422010026113    3.94702925603475
N        -1.70189509341736   -2.51246071056021    2.62969922069709
N        -0.86755222882234   -1.51704347771889    0.65494431855212
C        -0.60516108574437   -0.27500560433918    2.60829483075117
C        -1.10204534258262   -1.47119435517911    1.93837857079529
H         0.82157973162730    2.24532372852564    1.52894951799046
H        -0.22724472271834    0.70171857199264    4.31463927016876
H        -0.81661412160317   -0.89843036654581    4.53313277465164
H        -2.03872024569148   -3.21160595976555    1.97529541004262
H        -2.39748108416960   -2.24137292416860    3.30949313700938
N         0.08171962115865   -0.60074279098483   -1.80420078992790
N         0.86762546123628    1.51700086997016   -0.65493554568673
O        -0.43042059282786   -1.75768631854037   -2.34895857235068
C         0.60515236001461    0.27500480068679   -2.60830289363268
O         1.25696607736781    2.53626652182416    0.05441946165010
C         1.10205440845635    1.47118129573241   -1.93838257685060
H        -0.82129549430427   -2.24547075273288   -1.52890556937036
N         0.74321191336641    0.08428397069307   -3.94706113028640
N         1.70183627892405    2.51248236562515   -2.62972026272463
H         0.22712746119637   -0.70164776692336   -4.31465102497050
H         0.81641168175947    0.89852756294062   -4.53309788440207
H         2.03863154727652    3.21163838231392   -1.97530927680152
H         2.39745423294001    2.24142940856224   -3.30949917149288

