59
CSD_code = OXOXEG | q = 0 | S = 0 | Stoichiometry = C22H26N2O8Zn | MND = 5
Zn        2.92447141651141    9.61379005601265    1.79560538079559
O         5.85430898746842    9.52766726644743    1.13259830323534
C        -2.45589636138804    7.10184826309536    0.08335905897374
H        -2.62144012502219    8.17298124891078    0.00483710485574
H        -2.22219760892392    6.86386099212294    1.11786495403165
H        -3.35787644042110    6.57504544424899   -0.21618343982571
O         1.87103687323346    8.53219284108003    0.76161805292993
O        -1.13234036831442   10.61100599692651    2.80883985249547
C         2.14058534881886    7.82898483140097   -0.27933364951443
C        -0.68852379301317    9.47882653252852    3.42387890859462
O         0.69920741434306   11.80722412604798    0.96382748602618
C         0.73626481200275    9.34836575964512    3.43171443698016
O         1.45914013482035   10.27905073337872    2.88581800582984
O         2.87923869948557   11.39167095626599    0.74080040209923
O        -0.15148197991777    7.37918065919910   -0.33608430639437
O         4.87556612088471    8.22562441810843    3.58098482042560
N         4.58985328625476    9.03762265052532    0.78664425953552
C         3.43969592126899    7.66705322231881   -0.82550067474115
C         1.05255235839014    7.15280640390528   -0.93213269709459
C         1.29063844676197    8.20337468389043    4.05142748369818
C         1.82930965258761   11.90152293661210    0.35547161627745
C         2.56322562915694    6.22749362454158   -2.56148628653671
H         2.71006880390356    5.60990145943022   -3.43430375095606
C         1.26937250751931    6.37194423849580   -2.03905809349437
H         0.45263811682717    5.85935952064235   -2.52414889745719
C         1.79270383336598   12.71529235632650   -0.91279272444165
H         1.55168291869074   12.04306172522593   -1.73459848399402
H         2.76557986215232   13.15817685257761   -1.10203389092284
H         1.02223778632582   13.47728103374118   -0.84813795938396
C        -0.91459960121694    7.40036612005767    4.62031598073203
H        -1.56109628455994    6.66239062891377    5.07021660802337
C         5.87367075365209    9.22155133550744    3.56922157877400
H         6.79871025852856    8.63987489651327    3.54847991400497
H         5.83234006185562    9.81653062517218    4.49203668634440
C         4.58600378786910    8.28536986384541   -0.25579934115846
H         5.54293158603905    8.09981857061942   -0.74484590187433
C        -2.69135598569286   12.03341105539813    1.75145958723471
H        -2.11447068000624   11.95071702292817    0.83502109473142
H        -2.32712078573923   12.89238671857146    2.30760328455798
H        -3.74098683558545   12.17902778999292    1.51164205444777
C         5.83402325760931   10.18510092652004    2.37235079162636
H         4.95032697827746   10.83477284408138    2.43341280681834
H         6.73564953247683   10.80140419798608    2.39040543970222
N         3.56666927286592    8.73645183255828    3.51125658608830
C         3.61885042725572    6.85934103244567   -1.97122103896953
H         4.61591236175778    6.74743505324598   -2.37218265928263
C        -1.29024726287080    6.69824446582615   -0.80745892832707
H        -1.13113629335893    5.61091951457628   -0.75881396946799
H        -1.49719083546849    6.97255433261456   -1.85292523697274
C        -1.48480429612614    8.52022265282368    4.00239422565532
H        -2.55964833286729    8.61696786604806    3.99068199665934
C        -2.51381520041904   10.76956473226547    2.57831795077034
H        -3.05286767737683   10.85891388935129    3.53301537746628
H        -2.90761005415672    9.89833082620576    2.03604701900443
C         0.44184647871060    7.24577336677562    4.64571902079095
H         0.88625101636792    6.37962339211701    5.11378803908396
C         2.69028809717815    7.95761766012245    4.04324871719137
H         3.04214001929455    7.04107144161811    4.51806435960098
H         0.76901398189086   11.20513451163652    1.80015268470508

