52
CSD_code = OXPHCO | q = 1 | S = 0 | Stoichiometry = C15H28CoN4O4(1+) | MND = 6
Co        0.49467850377673    2.98803157040256    2.32498972397915
O         0.91808535963336    2.44250858395226    0.60844806163656
O        -0.14917816823824    1.27761191718844    2.56712470452955
C         0.59205470678406    1.21835322637678    0.31005490665370
C        -0.04357549942492    0.48424402546428    1.54357856911670
O         0.75098268792908    0.69699320949215   -0.76020722948018
O        -0.38350499890920   -0.66860874736728    1.52182360174771
N         1.41688822117121    4.73747425528598    1.84252356257318
C         1.38950561225830    6.04936278663062    2.50980264529623
C         2.52938907224869    6.82125307115737    1.84772445279558
C         3.62027699842910    5.75524711541106    1.69399095372226
C         2.86388466008567    4.41225623865413    1.70007135633689
C         3.24940528159846    3.51631644308623    2.87282013805104
N         2.30825407605433    2.38769414034584    2.93632814500242
C         2.39947666639121    1.64208067452575    4.20127415333799
C         1.76189752800962    2.37982437333464    5.37663602330514
C         0.25364079138728    2.52966807268580    5.22314829481611
N        -0.11951088434290    3.47630985535049    4.15624479644953
C        -1.58838870946520    3.58801604461431    4.08397649724243
C        -1.98803289927671    4.32163022233523    2.80672683182833
C        -3.50517917013473    4.25484783944558    2.53041329372951
C        -3.62610163425091    3.47636178039041    1.21447975191844
C        -2.33401501869831    2.66759578134062    1.17667836133948
N        -1.32148990670845    3.61710549487108    1.68522093853341
H         0.42298435434181    6.53777474204672    2.39142868501280
H         1.59828705662454    5.92431458715003    3.57490338468203
H         2.85698669432047    7.66948266822231    2.44256319956029
H         2.21257127820422    7.19140539526313    0.87263831161315
H         4.32065475385450    5.79841835371492    2.52707762130440
H         4.18713287051797    5.89208017405550    0.77694540900052
H         2.99871573947665    3.85564174690304    0.77025110853602
H         3.18416404586447    4.08524850263783    3.80211978859082
H         4.27958497952117    3.16317104592418    2.75954025939346
H         3.45204491312615    1.43723859305605    4.42781257160386
H         1.88308978113410    0.68954059678540    4.06843977691772
H         2.22523040718435    3.35640449615643    5.53009741955363
H         1.95127591257096    1.79134701245414    6.27454672895133
H        -0.17574099536475    2.86804072772245    6.17336966183830
H        -0.17733723354386    1.56022479104670    4.96883960964683
H        -1.99067548676401    4.09625824383237    4.96659961026476
H        -1.99057950099448    2.57414390174201    4.04747409512985
H        -1.63032868170361    5.35510781792719    2.85241571596257
H        -4.01064795355802    3.72523832975431    3.33595897847000
H        -3.94465737701080    5.24682798385459    2.45537281966206
H        -4.50605126800074    2.84048427055428    1.18856620431863
H        -3.67353081678492    4.15763491915353    0.36412954359936
H        -2.06619460700568    2.31377019591783    0.18237765448738
H        -2.40045893258133    1.81075041217671    1.84713584761219
H        -1.19052339989229    4.28314598570385    0.92229609338037
H         0.24367732627763    4.39067954561364    4.43297705651970
H         2.57333955307008    1.73876377117127    2.19173039597360
H         1.09414331080434    4.89918321448654    0.88721991395533

