50
CSD_code = OXUGIY | q = 0 | S = 0 | Stoichiometry = C17H24FeO7Si | MND = 7
Fe        7.65184167545962    5.30916715021042   12.63081197970184
O         9.05108218778800    6.64782311887635    8.35374273469786
O         8.76425215393193    8.75508881722475    9.05272580003545
O         6.55399116055620    8.11472876183896   10.30321142695078
H         5.68276722708269    7.68566157267290   10.34425349925659
C         6.81397488125452    5.73426946698247    9.79188360384948
H         6.97807890147683    5.50576326666598    8.72848107431158
C         7.40968991249464    4.62458632598224   10.63433447091187
H         6.98285011644264    3.66256489042532   10.36263736613102
C         8.80677702094252    4.63485870728915   10.92400514769712
H         9.41952541694290    3.74385139312554   10.86499084755424
C         9.31073547747503    5.86021354869139   11.37186308441821
H        10.34210714536207    5.98946465422110   11.67765176594524
C         8.33933172879856    6.90967783409193   11.40877539207167
H         8.65613614634608    7.87637730485251   11.79284481302840
C         7.48619031571073    7.08541608663888   10.14599655518236
C         8.50849203281288    7.45833014916726    9.06328486496930
C         9.73781998024013    9.19790262798238    8.11557699522433
H        10.71543332788426    8.77715266316098    8.36023915463292
H         9.75743189815396   10.28185931482997    8.18925616358491
H         9.46381640537675    8.88395156459844    7.10670010447872
O         5.44019336959858    5.86844262539453   10.01957660425393
Si        4.23970760616895    4.76820725809411    9.78684671391070
C         4.59868073195713    3.70694009310952    8.24223160937814
H         4.84411612705735    4.32847653045453    7.38557591881813
H         3.74865108605276    3.09155307243528    7.96786271026440
H         5.43900757910292    3.03862342053561    8.40833568129727
C         4.03985279129023    3.62954075359346   11.30472825466611
H         4.95133771627811    3.08254267914763   11.52726576501668
H         3.25103991715169    2.90090275584755   11.14961157766971
H         3.78746331361384    4.19817128822715   12.19434948267370
C         2.70503303497203    5.90119147450658    9.54211702969264
C         2.88342238436435    6.79967943580732    8.31454121120085
H         2.98323943127904    6.20366938374375    7.41035361564726
H         3.76882655906273    7.42291744129435    8.41573937330131
H         2.01960686271735    7.45310725681362    8.19581409029426
C         2.47490618144371    6.79036584629164   10.76663925122863
H         3.33243658606876    7.43240808848824   10.95017494279361
H         2.30212819789054    6.18858193728119   11.65519625040775
H         1.60253362233541    7.42507475176086   10.61234079405774
C         1.46235311131927    5.03475954475523    9.33582081808369
H         0.58163620848567    5.66046507790197    9.19633423314481
H         1.29101421129161    4.39530348433597   10.19770845314200
H         1.57084317623381    4.40254965657746    8.45830545305406
C         8.30710206391764    5.86920772763635   14.16720238107308
O         8.66804741894528    6.22757169172430   15.19276146137063
C         6.04442306688409    6.08506111379328   12.75755319909357
O         5.05314192953612    6.60900454352088   12.96255739378476
C         7.31756125585383    3.76485135442752   13.39989828034842
O         7.04536934659548    2.77982049297130   13.91769060569887

