47
CSD_code = OXUTUX | q = 0 | S = 0 | Stoichiometry = C14H16N2NiO14 | MND = 6
Ni       -0.65772950939874   -0.46973046545719    5.80367265846668
O        -2.55260517839538   -0.68019540009547    4.59877448739776
O        -1.18439459159067    1.69689630604845    6.13905925049843
O         0.63940961701556    2.50929780287405   -1.01179394157021
O         4.55514250329470    1.25480801525639   -0.86679913810321
O         2.99752748898122    2.22083012185718   -1.98450254269470
O         0.32446104163697   -0.04639553647270    4.30272133626904
O        -1.18733846324739    1.33854315785308    3.45000356244607
N         3.41642431404113    1.64935551293656   -0.97872108868580
C         0.83636046978290    0.99305302190509    2.25859470155145
C         0.35296135746399    1.64317017900002    1.14224986335188
C         1.17091893410848    1.88528604153771    0.03196439052368
C         2.51098771598117    1.44674426492906    0.09907414979440
C         2.99064026723080    0.79354726716171    1.24159140745521
C         2.16677439172056    0.56306145115094    2.31214135642973
C        -0.08985492781043    0.75534281129379    3.41954290591573
H        -0.67232280067339    1.97628741589596    1.11127336210073
H         1.32417976975216    2.61213463326000   -1.71502773732111
H         4.02369206263187    0.48043758337803    1.24684260901792
H         2.52484437821037    0.06184403232998    3.19593133009120
H        -2.36886783199748    0.07528011828219    4.00401758846518
H        -3.33867927025707   -0.47791613381521    5.11193446483604
H        -1.33838330505442    1.92011973836738    5.20028452037695
H        -2.00906904943630    1.80400805157715    6.61962497739446
O         1.23712325039596   -0.25771829512155    7.00900619340049
O        -0.13064548918441   -2.63585428474257    5.46875768126490
O        -1.95047763579835   -3.43766988671324   12.62437738528161
O        -5.86824436211351   -2.18987969548535   12.47693451130804
O        -4.30888926075025   -3.15065646916096   13.59674016288605
O        -1.63872550165985   -0.89060442051475    7.30606011931926
O        -0.12683515355198   -2.27531657105853    8.15896448361508
N        -4.72887646569982   -2.58231929359511   12.58963528465460
C        -2.15023258660820   -1.92931572233842    9.35058472053246
C        -1.66573717349483   -2.57625147428875   10.46825931688766
C        -2.48313038233836   -2.81697622977003   11.57922673149925
C        -3.82390857683179   -2.38075372465587   11.51123934835213
C        -4.30471200686515   -1.73088003900798   10.36730987356350
C        -3.48128810246888   -1.50141615548198    9.29619618006333
C        -1.22381041137347   -1.69117630996373    8.18996176779391
H        -0.63987188419237   -2.90748894961891   10.49998732674591
H        -2.63496514857217   -3.53990150695151   13.32796477516284
H        -5.33831125711846   -1.41962359027244   10.36135365134123
H        -3.84027872490172   -1.00300352758002    8.41118575638539
H         1.05450610252156   -1.01279758636484    7.60465509433256
H         2.02348201741537   -0.45958586773032    6.49604462943251
H         0.02361479103985   -2.85664391226777    6.40810417052764
H         0.69443457816177   -2.74237647838708    4.98879636167920

