45
CSD_code = OXUVAF | q = 0 | S = 0 | Stoichiometry = C16H18O10Zn | MND = 4
Zn        4.16287396503022    1.19493504441024    3.70309269165305
O         5.63900750451773    0.02102474712496    4.82397702989538
H         5.08196271143846   -0.64785371688807    5.23774957989936
H         5.92368274878998    0.61381360612376    5.52774236582151
O         5.89679859587169    2.22183574482755    2.83565840547160
H         6.24034006884164    1.59669483104663    2.18862168175155
H         5.47667551869315    2.93084203126822    2.33626383550362
O         3.60700905872077   -1.24154312029335   -0.15711076294961
H         3.97600518194954   -0.55351500333696    0.44850489836614
O         0.40566852373133   -4.76922063895778    0.08902651673952
O         4.03372805426002    0.11657686162052    2.00347878858486
O         2.94257194598861   -0.35887863573074    3.82346147400822
O         3.24459331722504    3.71064497554784    7.44352294969880
H         3.63935050527800    2.98689647785547    6.89996808092782
O         0.46492978022721    7.42577113411748    6.91151866031766
O         3.86718636659997    2.29371045837558    5.36468150453447
O         3.11434295800709    2.84768346269106    3.40165855048470
C         2.47671449422429   -1.67981898101961    1.91655847408804
C         2.72578598037294   -1.94955764674331    0.55962267583838
C         2.04122517308015   -2.98526130282959   -0.07507795523391
H         2.26357316033125   -3.15522145723854   -1.11560403826813
C         1.11689385982022   -3.74798079394588    0.62088849468823
C         0.86902986871124   -3.47547324185815    1.97554756345976
H         0.14449131468533   -4.08045536099347    2.49529652869872
C         1.53903198396319   -2.45887772376003    2.60308222014073
H         1.35763589980085   -2.23118879743708    3.64170293287378
C         3.17126799378937   -0.59643703253923    2.61202023082375
C         0.59711868696747   -5.09451435063150   -1.26825729570521
H         0.33595367964754   -4.25608976828266   -1.92078315908105
H        -0.07193055647571   -5.93000434847019   -1.46779604821217
H         1.62917759686780   -5.40056944530166   -1.46428045654089
C         2.46940312174602    4.21334903268454    5.22414111095967
C         2.53604302799897    4.47814586118683    6.60783640910197
C         1.84718694849114    5.56941788410200    7.11994310840263
H         1.89454497577262    5.77598452965263    8.17626796391229
C         1.09336631159711    6.39637686042302    6.29404731020422
C         1.02644932840725    6.13016984227944    4.92276362554607
H         0.44759296229312    6.75367736926384    4.26133695605160
C         1.70884235394352    5.05116887033240    4.40974310262459
H         1.66608275062857    4.82608008386027    3.35531756553620
C         3.17203718734393    3.07193986172196    4.63582698210631
C        -0.32976181440896    8.29842252821785    6.14311134913541
H         0.26254034238187    8.81855362075398    5.38384200779289
H        -0.73051666107938    9.02616658751167    6.84697279750186
H        -1.15710677607698    7.76887905924139    5.66071329287094

