36
CSD_code = OXUYOW | q = 0 | S = 0 | Stoichiometry = C17H15ClN2Pt | MND = 4
Pt        9.35888655817192    7.63625456284130   14.31353966445328
Cl        7.19798289447947    8.54345425954047   14.60995680381803
N        10.34468619028225    9.34486486425902   14.44089456880696
C        11.21181511798182    6.92221938951869   14.04666060268555
N         8.40969792793950    5.94471292841769   14.19039970155556
C         9.76879635691101   10.52597349277324   14.65459600565279
H         8.69079812382016   10.52120990984821   14.76009210278894
C        10.48866770093218   11.70373950218256   14.73919679667943
H         9.97723790818036   12.63638626528303   14.91363160365416
C        11.86765184900313   11.65395160186427   14.59551262195295
H        12.46206810018904   12.55336907727992   14.65496947079879
C        12.46887923188143   10.42968670479524   14.37481816131293
H        13.53860143272230   10.36296485639549   14.26049524795943
C        11.69161295219367    9.27536719733909   14.29963007007779
C        12.20232600902077    7.92874703951887   14.07434386174513
C        13.54931365213829    7.61856441705244   13.89660060739440
H        14.30189817139457    8.39316739186940   13.91859502328203
C        13.93100159201562    6.30805796024241   13.68874676267325
H        14.97422104361964    6.06413705091338   13.55000912824332
C        12.97270096322944    5.30677258797465   13.65815351539890
H        13.27407678794492    4.28135603399941   13.49498217959306
C        11.63254219229684    5.61253135412196   13.83485794007423
H        10.90908256250460    4.80680093456156   13.80565267392618
C         7.92993596247380    5.51678367388267   13.02039669576293
H         8.25822414088569    6.05796507928989   12.13849518710956
C         7.05349183079859    4.45541787142792   12.92088272058361
H         6.68493025065603    4.15478670970700   11.95211412256790
C         6.63915098014095    3.78777992057259   14.07056522015285
C         7.15687612630736    4.23944642805804   15.28204775930323
H         6.87101300676088    3.76541975917416   16.20840364193564
C         8.02873169751134    5.30860909797266   15.30090040474166
H         8.43342646604811    5.68615941447521   16.23471315395822
C         5.69990370770277    2.62930278180767   14.00657952890695
H         5.09840247217258    2.56875926647339   14.91012055164659
H         6.26566298812749    1.70137708809389   13.91549468107990
H         5.04360505155967    2.70980352647459   13.14375121772199

