49
CSD_code = OXYLDW | q = 0 | S = 0 | Stoichiometry = C24H24W | MND = 6
W         1.85253094585886    1.90626435955563    1.96359596441122
C        -1.02524662484447    2.49468367808358    5.25507994847669
C         0.00548305410412    3.24291096904148    4.73488755837984
C         0.29497784091178    3.21213800347383    3.36059253928551
C         1.39472847792734    3.93260438742866    2.71271713701023
C        -1.80876051344517    1.69662275913805    4.41895712328827
C        -1.55647647687351    1.65047123159679    3.06734532335042
C        -0.50592753081963    2.39467154745484    2.50567936466446
C        -0.12078997994737    2.37691084132152    1.09210518649112
H        -1.24282484111014    2.53388904954177    6.31240291868648
H         0.59623919228669    3.87743244615845    5.38180585808489
H         2.02330302346243    4.45954279712206    3.43591532317436
H         1.04160828957054    4.64843097303614    1.95881636750890
H        -2.62492401410498    1.12585299727639    4.83702647482047
H        -2.17830375584002    1.04813598215403    2.41884473542241
H        -0.20417049193102    3.36505124742954    0.62088199080043
H        -0.70765755908668    1.65705268538845    0.51465686189697
C         2.55365313636811    1.46885201216265    4.01141031364721
C         3.89089209395848    2.66692296985666    1.58712167969054
C         1.02412989585367   -0.09138841460553    2.40831390520060
C         2.37941500915954    1.09314894184999   -0.02006272792020
C         3.25397281773852    0.38878598389466    3.31047000734902
H         3.24252935207011    2.11754306022574    4.55952784454279
H         1.78935755272307    1.09358616557198    4.70457925736017
C         3.20242162968288    3.34763496144433    0.48669916031987
H         4.39944511316115    3.37073763721770    2.25179635922383
H         4.61656747078507    1.92316956454525    1.23265563193564
C         2.44707352594418   -0.43569404841795    2.46801057714746
H         0.52641474530065   -0.18913701655585    3.38203878790081
H         0.48541956360452   -0.69400241878888    1.67163353206343
C         2.40834562620986    2.51752226916151   -0.36240537202180
H         3.36950559253005    0.62370528293492   -0.08885141772684
H         1.67670408734489    0.53399035456478   -0.64422626186258
C         4.63452005635060    0.13897264390707    3.38192736643546
C         3.24146004055774    4.72987445359463    0.23912890964773
C         3.06056969630100   -1.46897362329075    1.74075811467779
C         1.69464962564798    3.11071640411005   -1.41676568433480
C         5.20612571452781   -0.87570203322922    2.64943008955212
H         5.24507954029577    0.74758354232879    4.03531718882579
C         2.52318128187297    5.28102569273462   -0.79679840575339
H         3.85866961943701    5.35846391675275    0.86685288893865
C         4.41692890279365   -1.68227523182453    1.82693568605109
H         2.44838601529318   -2.10866622618717    1.11942779609129
C         1.74800930977802    4.46917464810312   -1.62740065231519
H         1.11043539449870    2.48144731819667   -2.07459750035484
H         6.26765133451513   -1.06276658263426    2.71993324946145
H         2.56859611066390    6.34429897116813   -0.98167960114770
H         4.87506200291805   -2.48555760109418    1.26878031756236
H         1.20093910599500    4.91174044710093   -2.44687171594043

