77
CSD_code = OYABOG | q = 0 | S = 0 | Stoichiometry = C38H34Cl2P2Pd | MND = 4
Pd        3.45098171015265    4.49612351104202   10.06382281223427
P         1.62237112167345    5.42358072767601   10.97818645631962
P         3.68906800127843    2.39544629505388   10.81677302216928
Cl        3.14265849217031    6.34399055814055    8.72267454821562
Cl        5.62066266874239    4.02164902122859    9.45205374718383
C         2.16203397980449    7.02147771597586   11.75123573841535
H         2.33875721784392    7.72210416100784   10.92957627360103
H         1.36503059308679    7.39073869392308   12.40365176600398
C         3.41886405539729    6.77423643456616   12.53377849130560
C         4.64358073398923    6.62630571344203   11.87736783605936
H         4.71199281572148    6.76567907526242   10.79981178649224
C         5.80266155641804    6.40473167394685   12.60657154162040
H         6.74544294182647    6.30330914971395   12.08907793448468
C         5.75309960236503    6.31720608276798   13.98923859772612
H         6.65850561808891    6.15352532457062   14.55514474092792
C         4.54131987684882    6.45477994356873   14.64387326128477
H         4.49619570369994    6.39306864391133   15.72150712155210
C         3.38212113679068    6.67940906061348   13.92068453103565
H         2.43951333949879    6.79198769046060   14.43913219530850
C         0.90660745740377    4.63251972017787   12.46221371859057
C         1.80173920210918    4.04146242306955   13.34848854413156
H         2.86164720582734    4.04479814658206   13.11194453483280
C         1.34811321429647    3.44365830047424   14.50755885559884
H         2.05086652500774    2.99037784512968   15.19098040081308
C        -0.00964139286243    3.41732684151860   14.78284343520811
H        -0.36905072748990    2.94258042571610   15.68370000771676
C        -0.90633538309557    3.99210892141714   13.89835965779243
H        -1.96549221856913    3.96525041889542   14.10935656622378
C        -0.45312434355139    4.60120260406049   12.74119226215444
H        -1.15667499751433    5.04475018875228   12.05080405891822
C         0.19657426975775    5.85213533545847    9.94936700711019
C        -0.67805106803795    6.89319720595533   10.24207281449764
H        -0.52480594311859    7.50752065187057   11.11758271242715
C        -1.74706871233061    7.14741150222713    9.40145921104966
H        -2.42295951210378    7.95990548002384    9.62591874441844
C        -1.94991671332767    6.36991652598332    8.27258136444605
H        -2.78390480949918    6.57826654451469    7.61872466280621
C        -1.07733926128320    5.33545365931360    7.97664590534789
H        -1.22558919429577    4.73439781594326    7.09211463704688
C        -0.00720740641297    5.07914726328804    8.81227411382221
H         0.70375092906214    4.29419383270174    8.57546940522851
C         3.83542186069685    1.30567577654010    9.32219128531383
H         4.83518574529447    1.47247113758246    8.91014417510184
H         3.71686422421788    0.26156481618858    9.62702664976199
C         2.77059663854903    1.69779679493245    8.33962446930164
C         2.91399270849095    2.85145647310096    7.56417548480826
H         3.83264832950601    3.43399418632146    7.60748599426975
C         1.92924251836778    3.20582698188715    6.65366957797565
H         2.05626259181664    4.09346117413481    6.05126846125174
C         0.79142920476684    2.42591836123905    6.51521671676037
H         0.03007327103798    2.69972774769476    5.79954547971866
C         0.64038045774000    1.28696928138218    7.28706070877776
H        -0.24164721457237    0.67217576521225    7.18099421978967
C         1.62252112944383    0.92668764082308    8.19422533523031
H         1.50083162986953    0.03183991297270    8.78957898225853
C         5.09131037120763    1.94782887034389   11.86955888206651
C         5.61205784690508    2.95285520855803   12.67629924818184
H         5.18926632136896    3.95035820760692   12.61294715145859
C         6.67850362965633    2.69196096800804   13.51523144155818
H         7.08124460431546    3.47922830393554   14.13464918389080
C         7.23285529760713    1.42284844110584   13.55036509806135
H         8.07054182734528    1.21589404140356   14.19992460242418
C         6.72140642536591    0.41955775218586   12.74309136185809
H         7.16080019536703   -0.56726391054319   12.76456770498066
C         5.65256385119869    0.67569396341204   11.90280243539078
H         5.26354327905561   -0.11129515283653   11.27294095135752
C         2.24407080821606    1.59234102025649   11.59613743479065
C         2.33530661668107    0.68397771415447   12.64223436915180
H         3.30150522221169    0.43140186276570   13.05577921200841
C         1.18707092123651    0.11149251852018   13.16111086099797
H         1.26176684954213   -0.59116528341633   13.97826294986632
C        -0.05334133557690    0.43645112143316   12.63896768541220
H        -0.94591986695445   -0.01279308748288   13.04828056736898
C        -0.14980969709642    1.34446667045148   11.59681206823615
H        -1.11562911073698    1.60651799660661   11.19072856181146
C         0.99358209399922    1.92473280002701   11.08443890005648
H         0.92580246850523    2.65601279352176   10.28444676662733

