53
CSD_code = OYAKAB | q = 0 | S = 0 | Stoichiometry = C26H16N6O4Zn | MND = 6
Zn        3.23471798783374    4.01156073237317    3.41616659769395
C         5.73072791597698    5.53749248788389    6.67901508942367
C         6.57687552264458    5.42387286749718    7.77229005837768
H         7.07522721283736    6.28302799318783    8.19435593159591
C         6.75138251669119    4.15825559682040    8.29263581750261
H         7.40204175588909    4.02354880999383    9.14332680942365
C         6.10425181072501    3.04085475886645    7.75153359204881
H         6.27311610096141    2.07559285311049    8.20347393254374
C         5.26286272128463    3.14321649534825    6.66658413549473
H         4.75061923081052    2.29099706648334    6.25098760352099
C         5.07692713296113    4.41152024715619    6.12061969026534
C         4.48529273190819    6.12286005613409    4.96533999930494
C         3.84360153003016    6.85236507609097    3.89178606786632
C         4.06638005828040    8.18364952668596    3.53658599444452
H         4.72265858912836    8.81782119893141    4.11129881264854
C         3.43793434252017    8.66808184933650    2.39972621652550
H         3.58816044425373    9.69352132561015    2.09646511187436
C         2.64821876662921    7.82786013227449    1.63029908719762
H         2.19702098892364    8.18480488428610    0.71797077090316
C         2.47971507115317    6.51066251490271    2.06052036129543
C         1.79273110327750    5.44976061458560    1.35442952467085
C         0.67255287082527    4.26966915254124   -0.12298774435387
C         1.17716989817982    3.44072032947275    0.90908846732926
C         0.93434053983102    2.06877718907283    0.89671702476602
H         1.30678117350360    1.44299349404110    1.69121219115774
C         0.19853364453833    1.56807235428057   -0.15370618457611
H        -0.01204479814548    0.51056140473217   -0.19852216089895
C        -0.29220974193118    2.39423182193530   -1.17197166577198
H        -0.86318684724365    1.95128666086755   -1.97377155204103
C        -0.06854808528973    3.75555016941230   -1.17685614150886
H        -0.45061144208256    4.38908497768463   -1.96252678837418
C         5.54387605998759    3.37048631776383    1.76476908808059
C         5.04767082443525    2.05714819842512    2.40654275418856
C         5.59159384673268    0.79005479256750    2.24266771841294
H         6.45307583605487    0.65988905221558    1.60693157988369
C         4.99613588271540   -0.27104461045361    2.91227330272043
H         5.39616393600497   -1.26993202269986    2.80592837267772
C         3.88690423074938   -0.05060977895692    3.71949094602589
H         3.39585676701625   -0.84755140906369    4.25587538685178
C         3.40504908259739    1.24680246468041    3.82825230721783
N         3.99284574382393    2.23553153490897    3.17956122888315
C         2.19169199032212    1.72091686840920    4.66439880607006
N         4.32244400159050    4.82343126786123    5.06541908581970
N         5.32880790481744    6.60649932017933    5.91858081865582
H         5.61952357872966    7.56245208697165    6.03850365098782
N         3.03111861223589    6.08135786527360    3.18542447496188
N         1.86228989964516    4.21420390178515    1.79487180081329
N         1.08219750153146    5.53956319001676    0.19643207390483
H         0.90621023659682    6.37218363205421   -0.34063303911250
O         4.86677345058117    4.38668582124717    2.09760811741328
O         6.50834200278378    3.32933504779186    1.01799387644926
O         1.96333314889973    2.96390054319802    4.58396977740174
O         1.57865471523102    0.88682127422082    5.30925122133768

