29
CSD_code = OYAQOV | q = 0 | S = 0 | Stoichiometry = C13H7N2O6Re | MND = 8
Re        1.24857446691043    9.68038746264954    2.55955797350909
C         1.81595444523939    7.29764139657280    2.50950026011521
C         1.30694021668117    7.62372665414866    3.80228217502731
H         1.81018276305039    7.40268503586063    4.72960267491240
C        -0.03323725190087    8.05647255040924    3.65568950598609
H        -0.72593939955282    8.22875016608397    4.46692046332076
C        -0.36351302113601    8.03625613134706    2.27500604340762
H        -1.35677901454717    8.14153355541377    1.86311983053161
C         0.79043055650509    7.62957927479732    1.55280575988724
H         0.79939465102496    7.32261332328026    0.51665866265146
C         3.70290062672591    6.75790676022630    1.25660320127893
H         3.56127427568550    7.54981919497404    0.50942833517304
C         4.82767668224607    5.90036682054642    1.02978843955865
C         5.77908655319736    5.95619107461642    0.02091362051650
H         5.82352206203713    6.67542565829714   -0.77092270139783
C         6.66188167737719    4.89650843464036    0.25091312779882
H         7.52632612247289    4.61243933095937   -0.31294841186011
C         6.18775104166430    4.26645563573078    1.38292656426204
C         3.11159476437819   10.16220802841909    2.26627683454289
C         1.04428336967565   11.04655993314473    3.93327552951368
C         0.64639422787741   10.89873035012658    1.16860533982966
N         6.68926831514015    3.12925526183988    2.06085230557801
N         2.96418527591139    6.61539609606530    2.28383480439508
O         7.69095464116000    2.62306905579923    1.59145647723739
O         6.09469388603014    2.74349068344004    3.04278929326800
O         4.22985913098225   10.33666588330316    2.09040977784858
O         0.24261995644031   11.55156418023785    0.31934766255747
O         5.08596002971802    4.87025292892152    1.84944942714322
O         0.88485894899779   11.78964913814776    4.78725702341404

