40
CSD_code = OYATUE | q = 0 | S = 0 | Stoichiometry = C10H22Cl2NO3PPd | MND = 4
Pd        4.72473506099023    1.97833173575319   10.07150197877153
Cl        6.43373275689020    0.57598178995954    9.63535676344676
Cl        3.57707827699016    0.43563178458012   11.20049447358318
P         3.20004163239374    3.54177694480238   10.44778416152811
O         3.89742858920341    4.98262268255629   10.73550142491646
O         2.16247653310901    3.90825765029191    9.25127271356833
O         2.12408524956870    3.47561378598365   11.60933221403857
N         5.91405737270994    3.42061984147066    9.02954018138411
H         6.73522050112821    2.80405311048445    8.93618553819334
H         5.59359778862034    3.68509116408705    8.09740072987544
C         4.96139002677646    5.48787230678020    9.95644900232427
H         5.23571580708418    6.43175997275010   10.43674533673104
H         4.59686862257433    5.70402083724103    8.94374439682464
C         6.21965013404257    4.59449033791017    9.85296130761758
C         6.67533979277570    4.10156971281295   11.22983947793744
H         5.87151403394178    3.54040377328965   11.73150703420531
H         6.95283301256644    4.94123794623547   11.86179008830515
H         7.53837531390920    3.44451031615140   11.11893294968306
C         7.33362971211616    5.41666810457539    9.18969950091046
H         8.21959147782129    4.79999653085484    9.05821788491699
H         7.60223781483749    6.27141427691810    9.80349580038577
H         7.01729901333612    5.78221732483441    8.21473583076157
C         0.86189681130310    3.41965446351457    9.61306043094605
C         0.82184746038796    1.92291551883164    9.31338457320587
H         1.12028453156353    1.77094742711912    8.27741935433898
H        -0.17729455318940    1.52185389151749    9.45372661840978
H         1.52807765921648    1.38490299006671    9.94914853162615
C        -0.17274471448274    4.15826510708997    8.77325917336725
H        -0.01515941343198    5.23117717276781    8.81535038688850
H        -1.17197712795922    3.92436031083305    9.12919088363704
H        -0.08530053048383    3.84072573641650    7.73765427221482
C         0.78084120881013    3.71948515494295   11.14156086807210
C        -0.15254541302099    2.79395739846253   11.90869232164455
H         0.23222516542947    1.77924793114217   11.90045339435817
H        -1.14625660420872    2.81449287103547   11.46977590551495
H        -0.21510394808829    3.12353983397926   12.94212549162095
C         0.45477798997081    5.18209361019504   11.42882925439651
H         0.64350798166545    5.37796316768206   12.48132293742302
H        -0.58693367292641    5.39746522906290   11.20964072693813
H         1.10095864606485    5.83071025502166   10.84221608548991

