41
CSD_code = OYAVAM | q = 0 | S = 0 | Stoichiometry = C10H23ClNO4PPd | MND = 4
Pd        1.00194933943410    5.52768445463592    1.62035250901966
Cl       -0.63666232118030    5.08470018546878    3.04691390833609
P         2.20501610699148    3.72544927099141    2.02063502863032
O         0.07184198926094    7.47460708613523    0.60420160869740
H        -0.86521106170522    7.46883191036879    0.37743915520944
O         2.45385830030067    2.94239583648081    0.80543104184291
O         3.59484102490409    4.35894462848365    2.64032873151439
O         1.83732980130103    2.87356801763322    3.33069809431708
N         2.39993339526242    5.96455217242862    0.07057174609547
H         3.32788807952933    5.67698133322962    0.37871126326161
H         2.14572512840840    5.37369099672489   -0.72354887036394
C         0.86248725716638    7.74417825455368   -0.54042555563716
H         0.78487592481217    8.80985631107343   -0.79709890467201
H         0.52331677417421    7.14928334731939   -1.40087206790434
C         2.33638482442666    7.39586957827392   -0.23531058108757
C         2.80111917659639    8.14640180183939    1.01609979197415
H         2.18619152373147    7.84064650323628    1.87342363293015
H         2.70393173717571    9.22026073892678    0.88052317925668
H         3.84267701809034    7.91184536824702    1.22636040505419
C         3.20985344354014    7.74106795210425   -1.44503173506777
H         4.24132601645293    7.45568777565304   -1.25208882490273
H         3.18248093611401    8.80799176782999   -1.64882449286536
H         2.86675506277275    7.21335178621264   -2.33289606925687
C         3.45999022398815    4.48276563915809    4.05088994704945
C         2.78959851491107    5.82932431696412    4.35286955811554
H         3.39960645942109    6.61583926942039    3.90674701959244
H         2.73077901155245    6.00245736845060    5.42276772351735
H         1.77889887170555    5.87325642287741    3.92108223677388
C         4.86429098985633    4.49005713757454    4.65594482124261
H         5.44188454540091    3.64124554024046    4.30646098605953
H         4.80622289833092    4.47062077623711    5.74020637714899
H         5.37885500742060    5.39693301723608    4.34792618499763
C         2.58756156142595    3.24599923422047    4.48550701553605
C         1.61267061884570    3.54950480200355    5.61911851820920
H         0.84802098867646    4.24418949496312    5.28390118418374
H         2.13731922966206    3.95431437750045    6.47998317889259
H         1.11760468773297    2.62698134086344    5.91043883369582
C         3.43933688366277    2.02314616453816    4.83318742054835
H         2.77606940400217    1.16875332604156    4.94255128279672
H         3.98451290563740    2.17015083389885    5.76081300501136
H         4.12986772018142    1.80831385996505    4.02161171224936

