74
CSD_code = OYEGEF | q = 0 | S = 0 | Stoichiometry = C38H31AuN3P | MND = 2
Au        5.87544074262301    7.74798968001615   13.78348281003817
P         4.64984048197294    7.09978684992028   11.97931694807615
N        12.37562189208530   10.53948170386064   16.59625100987471
N        10.25735781949853    9.73275631485631   19.36567920450301
N         7.45433344893538    8.63709602408989   21.30128669304261
C        13.57914078537607   11.02019767896915   16.35557735469304
H        13.84175676166884   11.10872103363069   15.30821009509491
C        14.47098837674774   11.39547010334490   17.34918904249606
H        15.44603033523028   11.78386344942433   17.09762434968545
C        14.06955209119941   11.25540143131505   18.66978311643962
H        14.73154848137335   11.53491372060704   19.47780344265801
C        12.81007897712402   10.75274614175442   18.93341882462876
H        12.44439311606193   10.62176595888569   19.93846714952576
C        11.98513362150289   10.40306482236803   17.86223247653884
C        10.63787126194619    9.86277303456246   18.09638097294819
C         9.82458012105411    9.51110617077767   17.02460323487048
H        10.18572819267559    9.63745200595753   16.01662965964400
C         8.55139406879968    8.99674797758513   17.28044128835084
C         8.15874482658091    8.86485470270183   18.61409448751481
H         7.18883605330516    8.47471047611547   18.87762884806440
C         9.04402768057430    9.24529420875110   19.61734597803954
C         8.66618948187557    9.11951350723805   21.03280356581581
C         9.55445657885757    9.49486077146569   22.04307155530035
H        10.52353523751128    9.87863241157404   21.76997182447037
C         9.16186759263186    9.36191200098666   23.36077110704313
H         9.82709129842363    9.64443740380687   24.16507966527732
C         7.89794143804456    8.85965779846460   23.63463051727994
H         7.55013716392296    8.73958903748483   24.64925454341669
C         7.08947151553413    8.51417412270087   22.56206600368076
H         6.09405353857603    8.11660183253017   22.71956777285758
C         7.69894875097180    8.61685492878770   16.21908057438270
C         6.97428271827445    8.29100984652871   15.30561339737729
C         2.88376360559108    6.75856580482890   12.27924386179909
C         2.29768540873051    5.57627679444453   11.83362916791620
H         2.88244184738917    4.86925425005773   11.26184575204017
C         0.97127657601790    5.30133833043593   12.10809884152610
H         0.52781003787920    4.38393084417715   11.75101040237604
C         0.21937879000625    6.20491929429699   12.83879121698819
H        -0.81652672224601    5.99571139263600   13.06011368341191
C         0.79602163489540    7.38201339270505   13.28216123648646
H         0.20413907121903    8.08723192282304   13.84802622247444
C         2.12515999577710    7.68034842278316   13.01436956949205
C         2.71924807649306    8.96370715092568   13.49984809764141
H         3.36158859626401    8.78127207417842   14.36454958519377
H         1.93948411645795    9.66149976078826   13.79683766185699
H         3.32808584294837    9.43097881521189   12.72458279496645
C         4.60140599554003    8.29123268431687   10.59950669056236
C         3.38987331403784    8.66599372718211   10.02322010545199
H         2.47026939638586    8.20851444780086   10.36039469156227
C         3.35081780549126    9.61254431537469    9.01691756061940
H         2.40468564041291    9.88928398873820    8.57641367865645
C         4.52573455762271   10.19942614419763    8.58022896287384
H         4.50360280537309   10.94200526912538    7.79670346443037
C         5.73236841458223    9.82893343679023    9.14677971161890
H         6.64834647614824   10.28545080969949    8.79972330615226
C         5.79529439757361    8.87870669224354   10.15719995993278
C         7.11735362794211    8.50077534970661   10.74470904858337
H         7.93041926346635    8.80273407501256   10.08816543839433
H         7.18260728570946    7.42432332815414   10.90724175617825
H         7.25806564146535    8.99418281945220   11.70909945630489
C         5.22858479709013    5.56799173736255   11.17738390182516
C         5.46582821307012    5.52480440787569    9.80552313473007
H         5.25454226866494    6.39265176833054    9.19645590809845
C         5.96290738316392    4.37973497410157    9.21232224843161
H         6.13840542815483    4.35941764096706    8.14715187879830
C         6.23269965585815    3.26585960778108    9.98836346745341
H         6.62401746075212    2.36845456916859    9.53299809050456
C         5.99540372042738    3.30183753135052   11.35097617825257
H         6.20245928864354    2.42856044299946   11.95298129376068
C         5.49528654552048    4.44091734874661   11.96747135061175
C         5.25098606113503    4.44626987543562   13.44268478262857
H         6.05974029724721    4.96993528401788   13.95749572990900
H         5.20517986016450    3.43045704859042   13.82899829597775
H         4.31638306999549    4.95341527402511   13.68482429991492

