79
CSD_code = OYEYIB | q = 0 | S = 0 | Stoichiometry = C32H41Cl2N3Pd | MND = 4
Pd        9.32770960512452   15.77842679119247    5.57205312009023
Cl        8.34971233492281   13.90255951774453    6.46161610749510
Cl       10.17088639100602   17.72500601541647    4.72137373092400
C        10.43299606480129   14.68267658385697    4.36998320925688
N         8.33087851488491   16.90925950970805    6.92459002400760
N        11.77503963623808   14.77102391494014    4.28130680414743
N        10.07526466846156   13.66192850365283    3.56751844545308
C        12.25367343279342   13.81829592910978    3.41648821545697
H        13.29780447290572   13.71467619570481    3.20481510794012
C         7.60009325922793   17.97854313396286    6.61807112232258
H         7.44212586813840   18.17696408716195    5.56446744836692
C        12.60327128940667   15.75544195809129    4.89541420987921
C         8.48457179615357   11.83628690163489    3.74572678647085
C         7.78881288130981   13.97210956382250    2.78404935407559
C         6.52872072711600   13.43101454925860    2.56056071847670
H         5.75990953700368   14.04163984703593    2.11311915030994
C        12.09829552280216   14.70909391756789    7.15660052988795
H        11.06911279394335   14.53874555614045    6.78858706188889
C        13.25228607357099   16.68243876129386    4.07412168393703
C        13.05470451040289   16.72622603205286    2.57606923166211
H        12.30117661311385   15.98919441820564    2.28468629397973
C        12.77122500837481   15.75383514509222    6.28721429130974
C        11.18675966504776   13.12014435569414    2.97059199709232
H        11.12092340129239   12.30685663372117    2.27836153840201
C         8.76089083750383   13.15669190592680    3.37170942106165
C        11.97864234670508   15.12787725791593    8.62286184892110
H        11.56347539252764   16.13177273601898    8.69906382590185
H        12.94434343034412   15.10429518005884    9.12436868186295
H        11.31850484035716   14.43495327722342    9.14131826986340
C         8.09032273438115   17.44200663394585    9.23386610433960
H         8.31353055244867   17.19042072042623   10.25880232591564
C        13.62602310798799   16.69963511575720    6.83705291930670
H        13.78674478663867   16.72535638179235    7.90214054469248
C         9.49931332338751   10.95269373221225    4.43485159169736
H        10.41417558566020   11.52226629984266    4.61911529149428
C         8.56779606101555   16.64417440927907    8.20848877997430
H         9.13973147693031   15.74605722929537    8.42127733804385
C         8.05167602850744   15.41113532872538    2.39991513463748
H         9.08828402264759   15.68250658842325    2.63750898250550
C        14.09448908083490   17.60963760133616    4.67351163318031
H        14.60268267132846   18.33897398811364    4.06279814255425
C         7.21301814855226   11.33973448513395    3.49518757190733
H         6.97415879022085   10.32623083614578    3.77667269121135
C         8.97465578594094   10.50010145080494    5.79915807105733
H         8.69305804976382   11.36991681931348    6.38676495212646
H         9.74973820292144    9.95142885962432    6.33002074337773
H         8.10678691560934    9.85475796313453    5.69595888862041
C         6.24326357606217   12.12539044085995    2.90463584134773
H         5.25825603483505   11.72155707184454    2.72274092409728
C        14.28164242470303   17.61845417366016    6.03972834892845
H        14.93832852973330   18.34803922511697    6.49031816978835
C         7.07609901403467   18.82219685934825    7.58255958316091
H         6.48617683566258   19.67492242827445    7.28570901094740
C         7.14305937096520   16.33231621792224    3.22479155092513
H         7.21005206071001   16.05091715712641    4.29013842153440
H         6.10459942673003   16.24266470084975    2.91247204750216
H         7.46212492908526   17.36615091798482    3.09814149048419
C         7.32770066198823   18.55528433713940    8.91855730618714
H         6.93931873230333   19.19797685550343    9.69422389519507
C         7.84802607583565   15.63197581001375    0.89979187046799
H         8.49431108124688   14.97091582067614    0.32566034443989
H         8.09161178563510   16.66032152694594    0.64380365813428
H         6.81827340217288   15.44007399956153    0.60878782798018
C         9.85149740043439    9.74580190451784    3.56057950460680
H        10.21259233985264   10.06018125732071    2.58297712874797
H         8.98134415382112    9.11194599734123    3.41055301739695
H        10.62764623623123    9.15305020617746    4.03966827103754
C        12.53117464948121   18.09721056902146    2.14276533801164
H        12.27329528562743   18.07812391618903    1.08598292296652
H        13.27567366570558   18.87277672566747    2.29980150874905
H        11.64394280497640   18.34619266438967    2.71927982517120
C        12.86653366757949   13.38647203650984    7.05358292190226
H        12.90448824678935   13.02999783909219    6.02658546040417
H        12.37896279976270   12.62652180210298    7.65970172905277
H        13.88751252538778   13.51584660801102    7.40967952573708
C        14.36043476945355   16.38895241323720    1.85042086020896
H        14.73727746439072   15.41367211453976    2.15305703694142
H        15.12510196550999   17.12944685415713    2.07066278742804
H        14.19618184286339   16.37563692661311    0.77524193356240

