55
CSD_code = OYIDIL | q = 0 | S = 0 | Stoichiometry = C19H32IIrN2 | MND = 8
I        10.92208037325349   13.59604737790550    6.21607006951768
Ir        8.63414228588815   12.53885066994023    7.09883469666877
N         8.79037734021879   11.11511440668856    5.93693835198510
N         9.46255397216020   10.07686814706198    6.14775336404616
C         7.60773505290034   13.55566903121538   10.19525126487332
H         8.53184873305250   14.06360239816139   10.46574938792942
H         7.65208657687282   12.53961321801222   10.58352417324581
H         6.78165708351268   14.06984917241442   10.69188917995638
C         9.43684895731153    8.63844328512240    8.16718451982106
H         8.35325679265112    8.66175109493292    8.07878549469322
H         9.69804076395318    8.65942148715323    9.22308779944950
H         9.80259490083304    7.70457614366666    7.75605797747656
C         9.12335388317117    7.86317233173060    5.06983586155896
H         8.08244128475077    7.98658150334102    5.35749582098364
H         9.60364639145492    7.19074899801146    5.77135978632958
H         9.15268316430936    7.39584569084438    4.08873546714606
C         7.78137073881943   14.57395394119494    7.82052555431388
C         7.17633105003838   14.30245939129194    6.52910419873965
C         6.42262038093152   13.13037147270540    6.63736880252429
C         5.82688577977241   11.48869477439079    8.56847442322236
H         5.61626713152248   10.71000418894553    7.83722715101130
H         4.87313581603557   11.88317205590588    8.92654624152859
H         6.34061699652098   11.03586736071860    9.41504181934503
C        11.96010152671716    8.71446165985428    6.29287337406551
H        11.64528979973804    7.71267120556231    6.58850166329790
H        13.04665413971209    8.69622689883838    6.19578520304722
C        11.56988845041013    9.74039064776927    7.34994658089222
H        11.97434540170800   10.71151352012303    7.06023957678570
H        11.98942495694555    9.47077556340189    8.32005890880157
C        10.04786458688966    9.86847445487463    7.48751020034674
C         6.63682691086669   12.59300521482320    7.96352462941399
C         7.39500556621655   13.56757866716851    8.71375546184990
C         5.51025029574787   12.53678403734901    5.61348083520647
H         5.75660942617039   12.89189406933208    4.61551888752773
H         4.47619557503789   12.81412518305708    5.83077510034876
H         5.57536020514767   11.44976508001359    5.61216644327474
C         9.65409418377102   11.13302992891400    8.29008871188933
H        10.54701488706201   11.56622655240755    8.74867709747073
H         8.98369713744126   10.84549191530928    9.10524942553547
C         8.48962517592189   15.84563455418388    8.16409119089169
H         9.10737794537028   16.19209633938380    7.33734122479865
H         9.12951417351488   15.71936648302412    9.03586494072954
H         7.75898738950215   16.62647384010472    8.38839318445785
C         9.34793032548136    9.93631865554441    3.72093230632793
H         9.69509139404559    9.38495755408742    2.85136822118859
H         9.74690307448919   10.94597226677806    3.68179877379443
H         8.26403053512673    9.99786104470482    3.69443588540537
C         9.81596504934924    9.22787223733274    4.99456404881688
C        11.34830350221258    9.10139901723592    4.95275318456727
H        11.75889561408761   10.06802947527346    4.65453630040712
H        11.61319244571779    8.36869975087097    4.18903372103683
C         7.22462829165433   15.24775931826112    5.37279712762160
H         6.90386792143741   14.76219605645625    4.45342718833130
H         8.23279528838568   15.63167471119499    5.22025430434862
H         6.56729337421392   16.10009595540041    5.55971489116385

