55
CSD_code = OYIDEH | q = 0 | S = 0 | Stoichiometry = C19H32IIrN2 | MND = 8
Ir        6.91671741560289    2.91400861989522    8.15486319707545
I         6.35122204356578    4.10429242196636   10.45506911169142
N         6.06168318495769    4.07193054008540    7.00304394084809
C         9.27269712915150    3.02064470736785    8.37053105021388
N         4.84806697405852    4.01481684017304    6.68574547928501
C         8.96249312033757    2.93803505776106    7.00890524064344
C         8.18285168191428    1.73997546903141    6.81074084141886
C         8.18627026481203    1.00214431353529    8.05544908846571
C         8.79439644446322    1.81460228964581    9.01942767414467
C         7.74762317205242   -0.41806295738926    8.22903221913540
H         7.38870594835481   -0.60094197472450    9.24032379614299
H         8.58887176079529   -1.08944914526912    8.04250066350456
H         6.95148114296933   -0.67717845479918    7.53349591570428
C         7.85640298755832    1.16239357267815    5.46867499408606
H         7.59994966984028    1.94695991593734    4.75882942223109
H         7.02362371800640    0.46327908894406    5.52647715561087
H         8.72165466198078    0.62192254982005    5.07798171922726
C         9.37119314691014    3.87132458615980    5.91605257909775
H        10.12044789342562    3.39548837548566    5.27990421036408
H         9.79666301151899    4.78588310889730    6.32131177103169
H         8.51907065105100    4.14122031650703    5.29347408506265
C        10.12276282302028    4.04446531463621    9.05018172168841
H        10.19351610970401    4.95515943850065    8.45920338455599
H        11.13076350765942    3.65133577396331    9.20082232711052
H         9.71821580128167    4.30570038011829   10.02741709815628
C         3.13964757971486    3.62908874627175    8.44121909576071
H         2.31324031679776    4.20601201768732    8.04139114652859
H         3.74551141373841    4.27307779754354    9.07045082105607
H         2.72628524460157    2.83911173015090    9.06246222204657
C         9.12252072911360    1.43284193614767   10.42763593607652
H         8.43983797686120    0.67073615610145   10.79938136293873
H         9.06900156249799    2.29153431243415   11.09484768885076
H        10.13820296767638    1.03315066602152   10.47553615593942
C         5.01920637190158    2.01703475291881    7.95407958819720
H         5.13684628257367    1.15987272979513    7.28206725797651
H         4.63616812695814    1.63306711357939    8.90203271991395
C         3.99802486860621    3.00235837826899    7.33789120766277
C         3.12036394718027    2.32070709473895    6.27988146608184
H         2.41467417226245    1.66035028677338    6.78553580579974
H         3.75314849093503    1.70742113009312    5.63362493805182
C         2.38314257095088    3.33380427383396    5.41276087172080
H         1.79119591852075    2.80773992164306    4.66125940774824
H         1.69179753420195    3.92426025030877    6.01337744513279
C         3.39401425736961    4.23499981201330    4.71520446820756
H         4.00048069854370    3.62095321389379    4.04493432380415
H         2.87862638267638    4.98127652229957    4.10860468925582
C         4.33259334131776    4.96635311867437    5.68721583403356
C         5.52366897081410    5.52467913212991    4.90368830270721
H         6.10517519195623    4.71522010273440    4.46951819631371
H         6.17093610217236    6.09830265639450    5.55977779025114
H         5.16556314692925    6.16651734562649    4.10327753303120
C         3.63212387677497    6.13230746075713    6.39498744979306
H         3.50410198284162    6.95447867049540    5.69546316789506
H         4.24127814500241    6.47683203318820    7.22647493236533
H         2.65467756351584    5.85516048855023    6.77275948836596

