104
CSD_code = OYILAK | q = 0 | S = 0 | Stoichiometry = C54H45BrCuP3 | MND = 4
Br        6.93341645539589    2.77309715479355    5.88709570682504
Cu        5.03361895791905    3.26558010557694    4.64102242434525
P         3.16462076221075    2.92949309014868    5.93858768150226
P         4.95840896839452    1.87783707003282    2.80720890590772
P         5.09428430994232    5.45917464397315    3.95089236172488
C         1.42410542910685    3.06467113652415    5.39688412260868
C         0.41264367522090    2.22059231696026    5.84761911548298
C        -0.87882979228402    2.38411121383940    5.38223922625638
C        -1.17420397597313    3.38389582215083    4.46744022923255
C        -0.17287013103715    4.22661296111777    4.01558197044883
C         1.11995139225072    4.06460184020971    4.47946085806109
C         3.09499702829989    3.63631262815532    7.61919233596294
C         1.91451700818797    4.04317556752992    8.23165188133429
C         1.95077495049529    4.60094889773949    9.49673172266478
C         3.15710118605714    4.76391490514768   10.15720797539701
C         4.33676042382479    4.37813571044241    9.54301898942557
C         4.30927800301955    3.82537881960099    8.27702875647808
C         3.30351398824633    1.14070519204432    6.25595791224540
C         2.84594252079053    0.26200666893003    5.27418497260034
C         3.01898061384159   -1.09971114129020    5.42122349912029
C         3.68015281568690   -1.59795258698611    6.53198791453501
C         4.16520608258186   -0.72830344452611    7.49367044437759
C         3.98082672720521    0.63625006469685    7.36069726120691
C         3.79844290474914    6.35017080956772    3.01843477767528
C         3.11553618567330    5.63681607091723    2.03909073032328
C         2.11623766724790    6.23849486472494    1.29597036074480
C         1.79077221144930    7.56373851250354    1.52998247702285
C         2.46750911947711    8.28212319651188    2.50441986803402
C         3.46717324053701    7.68297628224222    3.24801302599158
C         6.62089281895561    6.13218954545205    3.21119383634799
C         6.63000714527865    7.15237116207275    2.26605196852579
C         7.82931701024761    7.58438312722486    1.72938161763389
C         9.02349723041494    7.00303003154576    2.12198250634856
C         9.01724786175647    5.97403685750583    3.04865912957283
C         7.82266095465750    5.53315975359154    3.58498354333062
C         5.02291028891152    6.30185839027083    5.56489722652743
C         6.17312944117079    6.62460904736448    6.27685734434649
C         6.07134431887120    7.15169250528059    7.55172287134101
C         4.82929111123772    7.36035383054337    8.12638393128403
C         3.68075215882277    7.02500652374555    7.42825673661120
C         3.77556761221182    6.48238443267480    6.16225724844316
C         3.73646914959264    1.93069401110117    1.44857340287200
C         4.06563500866901    1.73044446462420    0.11077030080077
C         3.08160192806822    1.79819324220455   -0.85801039465065
C         1.76687995992037    2.06451975790807   -0.50598500910207
C         1.43273371852333    2.26274398687190    0.82308266099102
C         2.41549503896839    2.19675503858875    1.79377996643940
C         6.47626006821118    2.40701079105142    1.94954063364194
C         6.42187972329439    3.57259790374658    1.18537658007937
C         7.56501807107743    4.07515495614119    0.59672457346741
C         8.78056373092058    3.43963871024592    0.79098439832786
C         8.84573560170737    2.29979107108754    1.57391027113747
C         7.70137253594075    1.78174882316208    2.15345635115322
C         5.21117374137773    0.08315661816467    3.01480223263282
C         5.99858843286754   -0.32695618843620    4.08944262877747
C         6.21243150478270   -1.67200927201794    4.32216615694627
C         5.62918565186553   -2.61999303818479    3.49818095395924
C         4.82616082990642   -2.21709428093209    2.44415518291683
C         4.61231966995930   -0.87250805577049    2.20091380774288
H         0.64150594190132    1.43972538510741    6.55999738386421
H        -1.66184019903435    1.72873226560352    5.73560706235108
H        -2.18565685179050    3.50293225107193    4.10738537720159
H        -0.39268783248992    5.00633147069157    3.30026264399135
H         1.91029800436436    4.71072497595756    4.11801056095628
H         0.96678041238703    3.92731606362613    7.72494782234836
H         1.02894248405117    4.91067374035772    9.96884662542768
H         3.17649242985693    5.19857583648816   11.14598994843289
H         5.28337837382455    4.51281627265767   10.04444365836689
H         5.23777601805096    3.55069742081252    7.79726698408139
H         2.34312917719777    0.64728303770280    4.39562114639087
H         2.65061975897429   -1.77226979103969    4.66018773250361
H         3.82293061135939   -2.66275725751601    6.64125106022821
H         4.69459242833998   -1.11161765964566    8.35332158091467
H         4.36739116964031    1.30759650354849    8.11353778666897
H         3.36295714219451    4.59607452902665    1.87060876516490
H         1.59267341342979    5.66960189687833    0.54087322284452
H         1.00926477052889    8.03910893166523    0.95543257265529
H         2.21425658433396    9.31701879878121    2.68429152536165
H         3.99299539143694    8.24456925666171    4.00808880093282
H         5.70492997921717    7.61079546702617    1.94604604892387
H         7.82943646605126    8.38092329636291    0.99858197927319
H         9.95596947954994    7.34763681352756    1.69924313011977
H         9.94155826295273    5.50554906490755    3.35158700444487
H         7.82728033546579    4.71297510819656    4.28847582880209
H         7.14662092056611    6.46057994383110    5.83821846460345
H         6.96961362144375    7.39701904682465    8.09859591436697
H         4.75361058764625    7.77598785141089    9.12018049972599
H         2.70905299891430    7.17247567871450    7.87685893304065
H         2.87468564758831    6.20666235670005    5.62814044301911
H         5.09014573533478    1.52243482210975   -0.16588829183271
H         3.34045957099945    1.64093199454022   -1.89516720356623
H         1.00487071767368    2.11805142356611   -1.26973967084601
H         0.41140045753419    2.47337890226056    1.10666067130997
H         2.16281719225600    2.36698271622045    2.83298638298768
H         5.47672170019695    4.08280321820662    1.04429520834303
H         7.50970133068146    4.97285283880990   -0.00186338639258
H         9.67584581283913    3.83917831181844    0.33826385455724
H         9.79376128793058    1.80998705987745    1.73999067860609
H         7.76276742429949    0.89489186870799    2.76714870102595
H         6.43867028050120    0.40370094016125    4.75292481820565
H         6.83011773467500   -1.97665936626932    5.15361704497852
H         5.79285299076784   -3.67218924221172    3.68010645109416
H         4.36127742172525   -2.95457027886224    1.80496266805119
H         3.97944176800776   -0.57122588493280    1.37801140050665

