91
CSD_code = OYINOA | q = 0 | S = 0 | Stoichiometry = C46H28N6NiO8S2 | MND = 6
Ni        2.21267281707254   32.96570423747335    0.76954021748445
S         3.63768632749917   30.52808712219409    4.07900357190992
S         3.44928364889096   35.28597621689736   -2.69790290879558
O         0.46420852213318   33.06890540441903   -2.79500514212613
N         2.48180276219092   30.46438022196280    1.65734507551921
O         4.32457974861004   29.33278089232613   -3.31404288312756
O         0.76943921335838   32.90243739781347    2.33509245501741
N         3.38672879476785   33.37983902699865   -0.96009893837132
O         3.85609820919102   31.15231446200369   -4.45917878558627
O         0.90044928053771   32.99820200403762    4.51676910354716
O         0.60816987994988   33.16957123302020   -0.61450212383057
N         2.60248950254888   35.43766059822552   -0.15558136408485
C         1.07352474127963   32.92843776841774    6.86569153974628
H         0.76935669698678   31.89470880854960    6.82651159677126
C         1.08181782670052   30.36854961992742   -2.78513882182881
H         1.33081853713148   29.31801737365454   -2.81141684973797
C         3.87001928779371   32.83354971657192   -2.11596942441985
C         3.09608777927029   34.66143736398643   -1.10107013804383
N         3.54194723339693   32.43825234391010    2.34729636509608
C         3.15416675287651   31.18819700407223    2.53143472103244
N         2.25377455446519   34.80596074263295    0.95249054536439
C         4.20968703429249   32.93321851693474    3.43228155575112
O         5.13017507565390   36.37292848950160    4.53673971046029
C         0.35350805809277   33.12888774888685   -5.14799625503132
H         0.15654557878237   34.18688770357058   -5.08100389568862
C         0.54845978737317   32.40532532955503   -3.97776806982998
C         4.94812457424572   34.90576106430682    2.19494598217805
H         4.88595551342056   34.33633067692485    1.27730367569184
C         1.56981607178972   34.94739888605007    3.25144867225789
C         4.21638921587950   31.42259923939860   -2.12317098727201
C         1.35912444414891   33.55761082957493    8.05968299886016
H         1.27708423276642   33.00815835423017    8.98481431666358
C         1.59780310082116   34.98473201049212    5.67903435073063
N         2.06218487801396   31.13018011789000    0.59457716703761
C         1.19157737288196   33.64054175474406    5.67827699364402
C         4.11792972599720   30.67906072395689   -3.37845509283997
C         4.56428661316071   30.78997899238408   -0.97109431354235
H         4.66628237270576   31.35453097352999   -0.05399669669749
C         0.82219311416090   31.02856379018170   -4.01652161409504
C         1.77926760921384   37.02557332024393    1.80843466587246
H         1.52677456962935   37.25062914011885    0.77488752988463
H         2.74425454710690   37.48815633568154    2.01878541578724
H         1.02841445172016   37.44378026667455    2.47307917668533
C         1.28511589820220   28.96721596609635   -0.18117210864740
H         1.14035364302453   28.76268712177220    0.87703375426235
H         2.17068163712317   28.41831531800659   -0.50347273114853
H         0.42378697582329   28.62259320647777   -0.74661341692078
C         1.47995737660646   30.44610211464149   -0.35410556219589
C         0.88819228694163   30.39365605431736   -5.26407174281949
H         1.11143453302047   29.33840721571704   -5.29896945845744
C         1.07335704562972   33.57344241089967    3.30953055295446
C         3.96343246363772   33.70385463544000   -3.16152197928686
H         4.30701071187362   33.50357119727833   -4.15397169325180
C         4.77679834121836   29.38203781213695   -0.94854446668992
O         4.63626962072492   34.60208693349662    5.74596650271555
C         4.68436515440122   34.30556094374991    3.38603048401492
C         4.34763979192697   32.05426194749655    4.46554472606470
H         4.82529896840027   32.21828533797468    5.40791920936328
C         4.62738289502067   28.68736988619563   -2.16017023326109
C         0.42823519641506   32.47871034327645   -6.36236468731618
H         0.28549233289465   33.03610583252404   -7.27529040914849
C         0.72741073027387   32.47596442675611   -1.61292150755151
C         1.87762741950860   35.59917377290003    6.90703584427950
H         2.20370928222893   36.62785820531500    6.91107677334607
C         5.51302363223571   36.97878890575676    0.93767254262568
H         5.44812713997853   36.43931403583898    0.00563702316087
C         1.76569405989548   35.62812538040125    4.42314675434069
H         2.11384474966360   36.65039906153462    4.41558948718921
C         4.78272743294737   27.30454298531780   -2.20511317249250
H         4.66454742712169   26.79646949022860   -3.14889656067773
C         0.69310115923838   31.11222032945029   -6.41904081402588
H         0.75466394067621   30.61965063055418   -7.37715920460784
C         5.23080682550710   27.29586741858341    0.16237750506338
H         5.46019427570857   26.74430117288413    1.06076870815149
C         1.09552368167311   31.06105943746068   -1.60405050322344
C         5.08320573654047   26.61849769424354   -1.04615755786269
H         5.20262072060398   25.54643913489941   -1.07823462322564
C         5.28587666996394   36.28782312567666    2.13444007461663
C         1.75884194647340   34.89195638496474    8.07925991538650
H         1.98549699965077   35.36760118743438    9.02094679604480
C         4.80829827293081   35.05164684032533    4.63747099007178
C         1.85589756484528   35.53374325337924    1.96190198376751
C         5.08202707557810   28.66238303684374    0.21346923406954
H         5.18061307813557   29.19724544259613    1.14522749352894
C         5.34917021998528   36.99038337427962    3.34907754304890
C         5.79221140703023   38.32551044164597    0.95821744379713
H         5.96065010878499   38.85561957600061    0.03379743640451
C         5.63581651872911   38.35274565808667    3.36256810071255
H         5.68037981790577   38.86744486855327    4.30910027152396
C         5.85545018730275   39.01071948642092    2.16967999099803
H         6.07617698748955   40.06703714025736    2.17750219325355

