27
CSD_code = OYISAR | q = -1 | S = 0 | Stoichiometry = C12H4AuN4S6(1-) | MND = 4
Au        0.68992985968399    5.13486741768084   15.39378687591380
C        -2.16456937458994    8.65867179966482   15.76097308052864
H        -2.19377317178351    8.94362257437925   16.79971090477441
C        -2.89722910612281    9.36884365515403   14.80361371403528
C        -2.84578611215332    8.97214575819664   13.41473150592805
C        -2.06196132691198    7.87954662617982   13.02827266274059
H        -2.01334581930652    7.57422880298827   11.99608383286325
C        -1.34967612181882    7.19993017093852   13.98746063580038
C        -1.40235309027401    7.58911041578184   15.35586569261378
C         2.92628052607436    2.80988989348692   15.40127393140260
C         2.86262200622875    3.18871336037455   16.77186308654307
C         3.67098231338053    2.59410179490831   17.71104923623800
H         3.61144705245124    2.88958206185388   18.74550397295440
C         4.56919729995318    1.60286234028227   17.30069426127219
C         4.63580367808594    1.22039666525724   15.90846705118090
C         3.80058213904599    1.83981490927498   14.97251160771283
H         3.83939080695484    1.56339096711158   13.93178248776389
N        -3.59623931254543    9.75185709917975   12.63798982758600
N        -3.68347957120092   10.42620476204537   14.99880343996595
N         5.54168661847884    0.26882721431187   15.68823261622256
N         5.42779898715521    0.91869991833743   18.05494263258232
S        -0.38307416228144    5.84051572002195   13.45858570788349
S        -0.50787585530847    6.72656433411137   16.58819258327989
S         1.89602728324648    3.55296001261271   14.19790767273317
S         1.75538922646172    4.42362894350548   17.32949877603855
S        -4.29539380172752   10.87322510014810   13.57006104801185
S         6.23791902882467   -0.10430231778839   17.09884115543231

