103
CSD_code = OYISIA | q = 1 | S = 0 | Stoichiometry = C53H44IrO3P2(1+) | MND = 6
Ir       -1.67080460971923    8.47360568718421   13.00608569521617
P         0.57792203961282    8.57683883460721   12.28310172801720
P        -3.96008668743447    8.11219473528438   13.45728586220485
O        -1.07708873715715    7.11310275485675   14.75557144048959
O        -1.37847833742291   10.66053676029291   15.07503047952479
O        -0.76046583787486    4.92250474388568   15.11752222346686
C        -4.53841698474819   10.86512513643330   13.62429350921874
H        -3.59039060466923   11.02041910269788   13.12814258786736
C        -1.53785462622287   10.00579764089489   14.15351220447021
C        -5.02911740211132    5.94848015846915   14.97843576353624
H        -5.55066931982277    5.61122994077609   14.09508971546984
C         1.35159848123470   10.22479847581716   12.15419400515470
C        -1.71424821058695    6.64915699423614   12.13017487357789
C         1.75073289557313    7.76643024647162   13.41495575816892
C        -1.39481971872417    5.62012832027384   12.97621935792830
H        -1.36531571653778    4.57943642319787   12.68180929590812
C         0.92665673639905    6.51106073940440   10.42872697119280
H         0.83520781876821    5.83999015325639   11.27091992435870
C        -4.95976617169731    9.57156536854555   13.90533788247584
C        -4.22812682496286    7.08344252681536   14.93530487593841
C         0.60900772920679   11.39635862653373   12.22165897391395
H        -0.46264783564904   11.34088044902548   12.35380865144652
C        -5.32879613578123   11.94663946813378   13.97292107966492
H        -4.99474518639061   12.94958988632661   13.75396474970307
C        -2.22463157259660    9.34270520921764   11.22485147150804
H        -2.35564516450887   10.42453327806389   11.20077211476010
C         0.87589926513000    7.88886543273564   10.62913682664470
C         2.75550974508517    6.89407580993618   13.01115492255832
H         2.87309584821324    6.63684638898651   11.96863144381163
C        -1.07288194527673    5.94343636640720   14.32759861175898
C        -2.43528868999789    8.71499862537218   10.06069392445511
C         0.94478917507431    8.74307962876512    9.53276168475399
H         0.88226217110552    9.81164119430068    9.68021503846782
C        -4.93221181691477    7.38064633964067   12.10920344164184
C         2.52010105625708    7.58894516941850   15.68946226704594
H         2.43617965002304    7.87027950735778   16.72891414291257
C         2.60887760008325   12.69105054970156   11.94197561135908
H         3.09818702160254   13.64951803111459   11.86381108002091
C        -3.76368241371060    6.83792155740006   17.28539279183165
H        -3.28252427967213    7.19268689328186   18.18507119093882
C         3.62235069098318    6.35966799545537   13.94959628265089
H         4.39755953985187    5.67921151978896   13.63117567090091
C         1.64973050473906    8.12256648637831   14.75851434159978
H         0.88112185418036    8.81664114513997   15.06959525370751
C        -6.18936546455325    9.37045660543953   14.52963457047746
H        -6.52649562353126    8.36545734408395   14.74252353626182
C        -4.80004138179762    6.03115290375573   11.78851043838512
H        -4.12564827647416    5.40527193708051   12.35492595776136
C         1.23681936189968   12.62566233611564   12.11634377062809
H         0.65457178187773   13.53299768786685   12.17138676350839
C        -2.33789538678672    7.28635967412344    9.82325829784641
C        -5.76701836624627    8.18727676084032   11.34123312080154
H        -5.85292710433013    9.24047783338829   11.56493219879566
C        -6.97498423581809   10.45318368621245   14.87691058762514
H        -7.92441466231548   10.29158924965054   15.36407069913120
C         3.50253907228600    6.69717374507595   15.28698724786278
H         4.17849542404641    6.27357197798267   16.01381287931220
C         2.73149314568971   10.29519451858121   11.97184200981415
H         3.31323318218503    9.38572730722136   11.91332885351603
C         3.35417876655414   11.52431424849792   11.86723682759142
H         4.42339357204708   11.57337149587445   11.72872231918671
C        -3.60773462474238    7.53112250277686   16.10089934067368
H        -3.00003045458596    8.42547208874496   16.07080207103670
C        -2.02626433267368    6.36590536743736   10.76725860355166
H        -1.99705966374480    5.32348795392085   10.46496387912599
C        -5.17733605270441    5.25464684171259   16.16818035303897
H        -5.79760472700983    4.37154234505711   16.19503774678455
C        -6.54517065057483   11.74228031493431   14.60247337195749
H        -7.15849850616723   12.58586930727778   14.87891229250916
C         1.08753638411898    6.00097225077684    9.15386605120054
H         1.14049954997656    4.93286987176270    9.00600998171521
C        -4.54154195344327    5.69017818001827   17.31806704649073
H        -4.65779632765728    5.14239346903286   18.24063768330756
C        -0.43072974369240    5.23064467016616   16.46403694533875
H         0.44544770748808    5.88214694520431   16.49899773703293
H        -0.21793897102000    4.27998389435218   16.94545922185042
H        -1.26986473713207    5.72909878554023   16.95434330237185
C         1.17500103153579    6.85660613682575    8.06730799017592
H         1.29967107724316    6.45523743713996    7.07308206801841
C         1.09784257283518    8.22642797959126    8.25872464093418
H         1.15841944755830    8.89478925605885    7.41274301850005
C        -2.81939698308142    9.52911778851083    8.84011463724747
H        -3.06633023737865   10.55355170623005    9.11741663938554
H        -1.95187339559245    9.55959249853415    8.16987146291329
C        -6.38481860475024    6.29285080494552   10.00623977285291
H        -6.96111685725110    5.86840138057337    9.19937309356111
C        -3.96152727614374    8.87648673743323    8.12261767370665
C        -6.49385520354955    7.64149952240049   10.29964957032541
H        -7.14518785844276    8.27033122110875    9.71314559775441
C        -5.08050485896407    9.56342135393301    7.68414321809869
H        -5.16710174945880   10.62484734797463    7.86577982829346
C        -2.61943409566754    6.83465286205710    8.41906562776845
H        -1.76672216936595    7.12371779177896    7.79130191772489
H        -2.71535751244854    5.74977389626374    8.37189440361256
C        -3.85375112655745    7.50830510201229    7.89448718989169
C        -5.53160112031726    5.49163659899592   10.74693599268358
H        -5.43590186347147    4.44180335814120   10.51326083914013
C        -4.85680464176311    6.83732975741249    7.21792314601006
H        -4.76798874655347    5.77608178019427    7.03659357038332
C        -5.96531572319666    7.53195084583676    6.76217747317842
H        -6.74165979535539    7.01147916184421    6.22212799919425
C        -6.07901245363198    8.89097736253666    6.99901829772018
H        -6.94560355046689    9.42964590584707    6.64650290289605

