52
CSD_code = OYIVAU | q = 0 | S = 0 | Stoichiometry = C16H25AgF7O2P | MND = 3
Ag        7.45742303147948    1.35580262713913    2.15116003704626
P         5.95126446905739   -0.41848335755972    1.46711124376354
C         6.63292977842377   -2.09541968173119    1.08600290303844
H         7.37115831845467   -1.93846966601238    0.29304545779482
H         7.18384258652163   -2.41631216044383    1.97486148062016
F        12.25315484086776    4.40167962091018    2.35600776760735
F        11.02017928568200    2.63596572895197    5.12128851465125
O         9.11290438509138    2.21596945376598    3.36647291697103
O         7.25862550734313    3.61083712976687    1.62053024111049
F        11.89137347377560    2.27093576148127    2.32069206485039
F        11.08135793361740    4.75088781259776    4.68103622727936
C        12.12102273325091    3.31366802558626    3.14429631612118
C         9.57589635488542    3.37291009571046    3.33811172278134
C         8.01228800728751    4.57027531813734    1.85453603485681
C         9.14424791050399    4.51749016605127    2.70425277799966
H         9.72910255107214    5.41023735226854    2.84023182632912
F        13.51772672129753    1.84899321035589    4.40273486399418
F        14.48495277156005    3.13937642839833    2.98638037480217
C        10.92569642623746    3.52942404281289    4.11151508317942
C         6.47234100673749    5.76887976850771    0.29232385491722
H         6.24356243350400    6.71423394734695   -0.19405158110365
H         5.61967147112023    5.46818152007963    0.89612973409327
H         6.63038207279241    5.01093572398759   -0.47110920005510
C         7.72003414976401    5.91300046853439    1.16682948994338
C         7.46969049892670    6.98769362779661    2.23018017051691
H         8.34956183594100    7.15207415235563    2.84526864767171
H         6.64769450426686    6.69371021054440    2.87912725397811
H         7.20940524519666    7.92798951922983    1.74793028066893
F        13.70893045271499    3.95289435418542    4.81511392310535
C         4.60862684932340   -0.74628938896692    2.68882362517355
H         4.01918449084955    0.17250594705014    2.75431600610603
H         3.95704665027095   -1.54456097689827    2.32368336586214
C        13.47760202137850    3.06079356728021    3.85755111194344
C         5.18670663181794   -1.08293105001248    4.05742942760916
H         4.39637833057090   -1.15543545500239    4.80159087249031
H         5.88505956818641   -0.30273258980068    4.36877571765805
H         5.72147300400729   -2.02989317260906    4.03368406503538
C         4.98632112143747   -0.00761294089747   -0.05075695515273
H         5.64444940985939   -0.18521536407984   -0.90655848971386
H         4.11914892379959   -0.66891896202602   -0.13300894352525
C         4.54986792686430    1.45323575118846   -0.02627762034205
H         4.10388627679678    1.73501286936683   -0.97751685644828
H         5.40758800544666    2.10213772423643    0.16292396807261
H         3.81626289438578    1.62679467474486    0.75767364060603
C         8.91166910882359    6.30382338613479    0.28564890480675
H         9.81192585072432    6.45415128730004    0.87453988390599
H         8.68963720033825    7.22891608565170   -0.24289313567983
H         9.11035020934133    5.52627376720198   -0.44886071383543
C         5.63650721352781   -3.16939289086148    0.66595414717973
H         6.17203774819620   -4.08740651611705    0.43215085865216
H         5.08220892721130   -2.86909648566665   -0.21951659978566
H         4.93134087946602   -3.38992046797110    1.46303329085183

