99
CSD_code = OYIWAW | q = -1 | S = 0 | Stoichiometry = C44H52CoN2(1-) | MND = 6
Co        4.60956590394752    4.34525797829218    5.89014788787890
N         4.66170373304694    3.67550001581365    4.04798789970676
N         2.93050223227522    3.33786347238911    6.03645842281475
C         1.92492406537319    1.51067910930019    3.07634598337378
C         1.62829553297635    1.80968314702358    4.43659050291717
C         5.41580351146338    4.03681737497541    2.93096591740035
C         2.69209132235575    2.68692600136771    4.88111601695729
C         3.11563647810154    2.17079311036350    2.65746607811429
C         2.10904036466718    3.01786495808493    7.11774247178391
C         3.57524457645647    2.91124473899916    3.81321038748430
C         4.95777147315825    5.01721194910359    2.03068196386460
C         1.09580803342276    3.91971433992979    7.49454723672710
C         1.15406569658465    0.69053175988872    2.26571766403070
C         3.54526376903367    1.94767809610841    1.36639195790739
H         4.44529490005526    2.40345865044944    0.97885072891698
C         6.66146773729639    3.41992434609277    2.71213093319114
C         3.66203884625388    5.75376099365838    2.28408801886640
H         3.29495712755683    5.45845828309018    3.27253105401928
C         1.62389962999046    0.49550998235569    0.94218573051600
H         1.06659984462572   -0.13659048821837    0.26267816866659
C         2.28437975120030    1.82586536023085    7.84444008567201
C         0.25178325628451    3.59552006132107    8.54246134007085
H        -0.54518606719873    4.26979171206109    8.82273632808347
C         0.94141085663564    5.20328073424276    6.71520909708779
H         1.92715209558924    5.43145994252221    6.29207168786386
C         2.78307089238027    1.10670662379517    0.53378233873426
H         3.13367885568517    0.94441635939860   -0.47868179163685
C         7.14215961453559    2.38526214314749    3.70038643503449
H         6.64329498534536    2.60552051771847    4.65157477752891
C         0.47491610675815    1.27397073819557    4.96848526861961
H         0.17271617532407    1.47001402202647    5.98744206805381
C         1.42304632816848    1.54090595069835    8.89233495766069
H         1.54000580636132    0.61899012640162    9.44622478748998
C        -0.32551880895797    0.44731451780136    4.15734716385055
H        -1.22606891287148    0.03033211857106    4.59265089296512
C        -0.01451356000187    0.14543390825874    2.85508729196669
H        -0.65754364064830   -0.50158957551062    2.27217010548776
C         5.72221422426551    5.31897848264671    0.91482472129493
H         5.36927634833846    6.05773254666258    0.20772351088607
C         2.59815234313965    5.38443703631291    1.24859992015400
H         2.92785220977699    5.64968314653083    0.24490390406773
H         1.66955147147543    5.91354301812652    1.45831341305001
H         2.39828220522410    4.31620549135641    1.27344763315347
C         5.92748802359164    5.83700057489898    5.51596262556137
H         6.12942532326276    5.93664836078109    4.45215456651579
C         0.40300472157402    2.40786788942557    9.23610287471068
H        -0.27128806770198    2.16114932799127   10.04617175742631
C         7.39359213304874    3.74585283874220    1.58347167700117
H         8.33937466929280    3.25794558136738    1.39372239532823
C         4.71195137685071    6.35964603419936    5.97869434321797
H         4.06309839228013    6.83747271852486    5.24402416312768
C         3.40535823486795    0.87068013259201    7.50297926991476
H         4.02466244746971    1.34102927976571    6.73224095057550
C         4.29038456309030    0.60044362062661    8.72304655982629
H         4.64292363468851    1.53607679637751    9.15120375103832
H         5.15528845698098    0.00491641575662    8.43359479013092
H         3.74509290221191    0.05492778387016    9.49122911126183
C         7.18175889219651    5.79977343375813    6.36564965629074
H         7.17460072399021    6.64084287236821    7.06434457757100
H         8.05692662443100    5.92538881503337    5.72145471628469
C         6.92596723232526    4.68198651703822    0.67834330944380
H         7.50178211075671    4.91778518965135   -0.20742674523044
C         3.88512433316710    7.26878272259549    2.29554780420374
H         4.68487201954451    7.52889093571613    2.98549724340585
H         2.97567717151883    7.77847250468138    2.61112994861658
H         4.15268422168083    7.63530063544943    1.30600832343442
C         4.85312633390822    4.46301041672948    7.89523069555379
H         4.13613171015701    3.83834885375806    8.42216612728337
C        -0.03509590622355    4.99997867297983    5.55374006679593
H         0.32051531271244    4.21124140937219    4.89576214456621
H        -0.13194333429037    5.91651632950232    4.97305664519302
H        -1.02008799477036    4.71916068551772    5.92660496357913
C         5.94466854373230    3.81207389853674    7.30355551536412
H         6.00476540422159    2.72945767332661    7.42232041705099
C         4.93715802004821    5.87317179992531    8.44311154683678
H         5.95354484665585    6.06889861068917    8.79555396684041
H         4.27422560299635    5.96337257107744    9.30860678408937
C         2.86153673355483   -0.44544655057256    6.94334146953001
H         2.22777396878835   -0.94373423351105    7.67580869676926
H         3.68283851103415   -1.11318578376186    6.68665520898851
H         2.27356709542274   -0.26315393157478    6.04723255828300
C         6.70627674886508    0.98900731875187    3.24868823353933
C         4.53098559501472    6.90458712219684    7.37891675186130
H         3.47951896561133    7.16497649972654    7.51562034601368
H         5.11119630919571    7.83184886649161    7.49661774374012
C         8.65284053508237    2.43140981119129    3.92543159978745
H         9.19825945659138    2.06250455932937    3.05797129813353
H         8.92038738628417    1.80676146893086    4.77683763502724
H         8.97406374424399    3.45069189425912    4.12952401565420
C         0.50422636113880    6.38279178650758    7.58270097293713
H        -0.53688645673956    6.28959714463876    7.88856183462213
H         0.60463640859678    7.31189636549502    7.02291660388326
H         1.12361994773678    6.44780311720550    8.47490705745326
C         7.29596048820760    4.47077072223185    7.12911025547712
H         7.94346532771994    3.79154987807314    6.57112385623096
H         7.76430825348157    4.62811564420969    8.11208840637277
H         7.02831180861451    0.23745871895762    3.96840081216149
H         7.13940579356194    0.74827079853134    2.27782723869260
H         5.62356102231034    0.94290407852113    3.16248989975452

