104
CSD_code = OYIYUR | q = 0 | S = 0 | Stoichiometry = C38H58IN4O2Sc | MND = 5
C         5.38378994530361   10.72065269837595   11.07923898489056
C         6.32753963567722   10.93838169898400    8.93821762566895
H         6.96273858237925   10.15753686575071    8.50892984156175
H         6.61362630419849   11.89679587780183    8.49360215609217
C         4.83663025095383   10.63151636423748    8.80175309428011
H         4.28169764713938   11.43423349073166    8.30510665711512
H         4.64521821180318    9.69426146410989    8.27051729119515
C         3.02542664381300   10.28521134990342   10.53100052139005
H         2.91307754682712    9.31063586140119   11.02371447715417
H         2.44580498428606   10.27477773264254    9.60578798903976
C         2.46721552550269   11.38386590351979   11.49962186568905
C         0.95957754441643   11.10850286740172   11.67617045647410
H         0.80785424814987   10.10159561118525   12.05538889772336
H         0.42859309419299   11.22065270261758   10.73371833232405
H         0.55710390446530   11.80710057410878   12.40459632495483
C         2.64022514487064   12.76661036041244   10.83010694819465
H         2.14794431045961   13.52014625355370   11.43898919873143
H         2.20353625940285   12.77730546834770    9.83324468949322
H         3.69830965002519   13.01997056926436   10.76873146257642
C         7.75955153061761   11.33265473336721   10.94748973686075
C         8.03768422264399   12.68057624427865   11.19089592075029
C         9.29231001852188   13.01651925493513   11.67974699993234
H         9.52843149854221   14.04920280532586   11.88830455206758
C        10.24551302346882   12.04233691026048   11.90854787823900
H        11.22028896698746   12.32028890547113   12.28302261830298
C         9.95043835012285   10.71327718452500   11.67550665830729
H        10.69794259165096    9.96112456955792   11.87592458695923
C         8.70227282972466   10.33398763782831   11.19991898229795
C         6.99012944741160   13.74766331132173   10.97385752240075
H         6.12400166224476   13.29904540377479   10.47669705637967
C         6.51442147611957   14.27271360696591   12.33078841944300
H         6.19291893974460   13.43439368055144   12.95307028200819
H         5.68030109078183   14.96041548099877   12.20190354438615
H         7.31971198813893   14.79596808407534   12.84252228823532
C         7.50347493244893   14.88323388298963   10.08591181463466
H         8.30344028776605   15.43338802819960   10.57428400398293
H         6.69667839723625   15.58099692236344    9.87019759027888
H         7.88462541049834   14.49300634923679    9.14368036667922
C         8.37581950784156    8.87491065271358   10.99006110301876
H         7.32963711757312    8.78403406288638   10.68124447289173
C         8.52286118328823    8.10911237056017   12.30520177794148
H         9.56075661322434    8.07114594696027   12.62803982812285
H         8.15463231267191    7.09266338406091   12.19137363046604
H         7.93323530182117    8.59936379841308   13.07649762500498
C         9.25989962581821    8.26711797652525    9.89849174149922
H         9.16073806716952    8.81936204881831    8.96505778912196
H         8.97341905270471    7.23306315429209    9.72210273139655
H        10.30639932189990    8.28694429273228   10.19290632920917
N         4.40971522229970   10.51013911177353   10.19750925590141
N         6.50016314433193   10.97932076073361   10.39476433600670
O         3.11412870020312   11.33706459477808   12.70682946085142
Sc        4.74518550978827   10.69021633898136   13.39287875217481
I         4.74517918122045    7.85486793974638   13.39288162285825
C         4.10658055196382   10.72065048560488   15.70651813631901
C         3.16282999494661   10.93837379509863   17.84753955384148
H         2.52763010661099   10.15752941476890   18.27682676387719
H         2.87674493737879   11.89678789492304   18.29215650960622
C         4.65373924623646   10.63150734691085   17.98400393390389
H         5.20867137060873   11.43422281491516   18.48065371348524
H         4.84515121651602    9.69425058367613   18.51523643092286
C         6.46494442046078   10.28520956068804   16.25475708637861
H         6.57729418935511    9.31063354781302   15.76204442136328
H         7.04456550792328   10.27477690868058   17.17997001214993
C         7.02315767959972   11.38386163961595   15.28613479584962
C         8.53079604773049   11.10849770227899   15.10958959229075
H         8.68252173269022   10.10158912619079   14.73037535697904
H         9.06177837483973   11.22065252145550   16.05204224162766
H         8.93326951434276   11.80709353081786   14.38116198978000
C         6.85014238608978   12.76660579985282   15.95564905450089
H         7.34242406905691   13.52014042593305   15.34676636298847
H         7.28683003097816   12.77730277402597   16.95251179397306
H         5.79205764889365   13.01996620560271   16.01702230946541
C         1.73081861281022   11.33264892234798   15.83826723215531
C         1.45268715050518   12.68057150354667   15.59485948288287
C         0.19806083781849   13.01651456061706   15.10601210827693
H        -0.03806288071726   14.04919694819371   14.89745129400933
C        -0.75514459249118   12.04233239035571   14.87721585861716
H        -1.72991869733106   12.32028743663297   14.50273897763839
C        -0.46007030144870   10.71327300870365   15.11025583671976
H        -1.20757410878873    9.96111980727641   14.90983834899873
C         0.78809705980249   10.33398290266977   15.58584050055051
C         2.50024293409290   13.74765746441227   15.81189862615936
H         3.36637296870293   13.29903665975952   16.30905278539597
C         2.97594670204332   14.27271416303689   14.45496869101650
H         3.29744691138199   13.43439834807653   13.83268003226458
H         3.81006774582007   14.96041473003561   14.58385587951713
H         2.17065460694863   14.79597288396798   13.94324185737541
C         1.98690165299074   14.88322240544311   16.69985454025085
H         1.18693213213584   15.43337627342203   16.21148915704987
H         2.79369844659640   15.58098616990462   16.91556577936478
H         1.60575808621037   14.49299027689658   17.64208706110226
C         1.11454780993513    8.87490562567960   15.79570007114421
H         2.16073049781627    8.78402658627308   16.10451421554312
C         0.96749688843520    8.10910506213312   14.48056243041874
H        -0.07039916086531    8.07114108658500   14.15772621243670
H         1.33572310825968    7.09265525460274   14.59439019270313
H         1.55712206484833    8.59935241253190   13.70926400223864
C         0.23046671987089    8.26711581830877   16.88727073466480
H         0.32963020733630    8.81936235475622   17.82070254749819
H         0.51694558887199    7.23306111533114   17.06366289812639
H        -0.81603328998813    8.28694293141035   16.59285762840360
N         5.08065533268704   10.51013606855268   16.58824768289303
N         2.99020705626296   10.97931557866737   16.39099315267297
O         6.37624692283099   11.33705802667840   14.07892602944818

