114
CSD_code = OYIYIF | q = 0 | S = 0 | Stoichiometry = C44H58F5N4O2Sc | MND = 5
C        16.48017231855122    2.74829031471366   21.72337644371482
C        15.96852275532817    2.09038131139825   23.91941396140655
H        16.52796838648170    1.31887288206964   24.45776089261736
H        14.94947172774754    2.11563091500460   24.31588676337277
C        16.64981680466498    3.45748646184356   23.94809011547592
H        15.99074168032714    4.24292437922440   24.32905180819178
H        17.57730861165021    3.46264836786530   24.52969844595639
C        17.53494626586456    4.94098098704774   22.11808368950805
H        18.00980360825789    5.39538082446611   22.99124214080377
H        16.76179460571607    5.62548059356705   21.74586729509171
C        18.59760751355027    4.75065469819785   20.98659506755218
C        19.68151408117366    3.77560235776367   21.50236027849050
H        19.26488619901114    2.77132244075457   21.56052584993592
H        20.04762689919043    4.07972485500577   22.48107144467048
H        20.51409196018778    3.75927223355489   20.80527327325704
C        19.24705290379630    6.13017119715280   20.74094927607689
H        19.95228688125120    6.04455533981931   19.91941035707075
H        19.76469687177098    6.48661977074599   21.62833622679148
H        18.48451448829835    6.84897524539544   20.45323669528642
C        16.88997932687035    3.48271201650448   17.02743196510287
C        17.16840587386654    4.26796876625491   14.83142521557056
H        18.12128164558876    4.21654103100695   14.29534365424661
H        16.59474874991529    5.10950312458279   14.43273240150427
C        16.39059893246474    2.95343830885957   14.80220593808663
H        15.37369822000310    3.08014468854475   14.41981941531584
H        16.89073560094699    2.17161310161003   14.22164894815812
C        15.62242927170478    1.40591738192917   16.63181536514672
H        15.50191900344145    0.75885306056477   15.75928437028170
H        14.62644438053390    1.68414140225460   16.99991118055086
C        16.35478026787474    0.61915238359750   17.76776302604956
C        17.76381700110336    0.23748492335579   17.25733276466780
H        18.38119684251697    1.13255682628873   17.20062592823080
H        17.71119415051542   -0.23629768200717   16.27895582531490
H        18.22676227293006   -0.45195236034071   17.95712923348198
C        15.56167333332508    0.49214893877360   22.05336435386182
C        14.22839619500590    0.21808426720092   21.74565342599809
C        13.88007425583266   -1.08252763294210   21.40597830844898
H        12.85448510047220   -1.31751800014899   21.16499011575405
C        14.83173108859100   -2.08195129413254   21.36526858148098
H        14.54591952129774   -3.08885255705508   21.09774353307886
C        16.15287784211370   -1.79187135248513   21.64829158901127
H        16.89082741078568   -2.57732286543873   21.58856183289968
C        16.53949473832948   -0.50662059750207   22.00109473803070
C        18.28625622836482    5.47885159169397   16.69852523079811
C        17.79297354929373    6.74832388105345   17.00278416305773
C        18.69616690266655    7.74680432363056   17.34282100960811
H        18.33698475725584    8.73649423622483   17.58082991315347
C        20.05178647623610    7.48907845298327   17.38751979845878
H        20.74224800484880    8.27561511542556   17.65539104377968
C        20.52497062593670    6.22110968229408   17.10819985764229
H        21.58486845995909    6.02690252095297   17.17119440472363
C        19.65552135801096    5.19881959652027   16.75489058819324
C        14.44648295708826    4.33576407017904   19.36861896303551
C        13.80564472414269    4.81541839805315   20.51078594476049
C        12.58858415971089    5.48606316885125   20.54926250683279
C        11.91111938014931    5.72754845422637   19.36241539103629
C        12.48273527148763    5.28292355705444   18.17869284595884
C        13.70172317818740    4.61612613447850   18.22304435195258
C        15.54818093285612   -0.67504446264473   18.01208870656669
H        16.00020319465887   -1.21946288205123   18.83599715548854
H        15.53286268359903   -1.30470595577503   17.12564003338315
H        14.52961924164340   -0.42457233348524   18.29601313186026
C        13.18753546265836    1.31115476246671   21.73880131914632
H        13.66148748711405    2.24547661044419   22.04935791892029
C        12.66908252737809    1.50622570031160   20.31195597106042
H        13.50902451083416    1.71653701267631   19.64864278949793
H        11.97289814498959    2.34191337088744   20.27187206308123
H        12.15596224401042    0.61453964025121   19.95888086948873
C        12.04108250464206    1.00762582847787   22.70563595035742
H        11.48870900601236    0.12448242471454   22.39441465344116
H        11.35042077576860    1.84728185963133   22.73871755548456
H        12.42195711611540    0.83459488599334   23.71035513646958
C        17.99410258940467   -0.19233591776990   22.26195453291734
H        18.07296282302914    0.81019664985746   22.69160199397808
C        18.74003532692888   -0.17397723002448   20.92525399133047
H        18.73387353185968   -1.16422375630681   20.47400032802536
H        19.77419064760175    0.13375737901934   21.06958065227089
H        18.24755240560116    0.52622137332204   20.24625906046866
C        18.63446338668268   -1.17386607155496   23.24593687452916
H        18.05161541517483   -1.23558880104894   24.16330227322947
H        19.64020849868342   -0.84306718157877   23.49699714837984
H        18.70637574317027   -2.17105960583490   22.82024322950953
C        16.31021378926489    7.03049280980889   17.00542475367104
H        15.78289163109787    6.12487374097595   16.69604914008723
C        15.86230682348638    7.36446283946581   18.43040794800934
H        16.13869169532154    6.54600748090215   19.09631836506752
H        14.78264261835635    7.49737535123061   18.46741762679541
H        16.33331986393316    8.27956441877971   18.78237070802301
C        15.94603645546547    8.15597602680809   16.03495927308952
H        16.38787449451810    9.09974406931928   16.34469065461087
H        14.86613349646005    8.28090799681825   15.99916661686455
H        16.30017667763136    7.92706982742884   15.03168038734480
C        20.18090649598727    3.80576439730359   16.49785102905606
H        19.38248179327433    3.19488802206566   16.06750323512782
C        20.56703832774502    3.17154537524403   17.83657187350187
H        20.87129463116242    2.13602933689123   17.69459942345317
H        19.70976283997466    3.20532609992971   18.51314779342804
H        21.39354019259470    3.71568582594108   18.28937167028646
C        21.35502478714879    3.79818443000453   15.51647800085247
H        22.23055652539566    4.28018716035643   15.94289460750987
H        21.09262718714587    4.31884081124988   14.59721130012734
H        21.62371628654359    2.77335218225198   15.26858720653030
F        14.40996234858828    4.61746888388799   21.71612332173622
F        12.06207111204131    5.89829911746794   21.71869597357450
F        10.73401717808765    6.37412114546197   19.35954789663029
F        11.85654160826774    5.50336483430415   17.00651128518441
F        14.19686776399091    4.20922641720393   17.02034307575565
N        16.93916429234593    3.69612254113974   22.53262073630883
N        15.93556546946124    1.79382807669850   22.48130165290491
N        16.34556068227895    2.58157647166967   16.21781556601854
N        17.39635044170607    4.45823301050424   16.26984851934672
O        18.01729115391422    4.29059643685053   19.83206025083065
O        16.42177901847503    1.35826467563564   18.92141497450831
Sc       16.54922449574897    3.18955264795348   19.37503404635385

