77
CSD_code = OYOCEM | q = 0 | S = 0 | Stoichiometry = C44H20F8N4Zn | MND = 4
C         5.39660651652490    5.80145412675658    0.00518260109208
C         5.08087813268061    4.40523409718078   -0.12335568060030
H         4.09156940676799    3.99653127085694   -0.18219912496245
C         6.25866956171312    3.74236976003387   -0.18450552744631
H         6.41479494057460    2.68847717126776   -0.30245608121513
C         7.29693320727167    4.73093306469249   -0.08201982937812
C         8.66092725344457    4.44246318602491   -0.07802243763205
C         9.06581390768493    3.02136635288764   -0.15047219200137
C         8.71158141251945    2.13168462894040    0.85898112436886
H         8.14688475396037    2.46382469678118    1.71540037171734
C         9.10460480338356    0.80956026422559    0.76423698780767
C         9.83787006772735    0.32828996177217   -0.30567579762779
H        10.13361247733431   -0.70576216549560   -0.36538019202184
C        10.17497266404603    1.23452786314851   -1.29525120191115
C         9.80768011289262    2.56578829329039   -1.23635464342100
H        10.08797669009186    3.23615571319840   -2.03304189123486
N         6.74576038867338    5.97141367534840    0.01005655876674
F         8.76220811692943   -0.04187600454857    1.74684400294802
F        10.88600935215020    0.80254755419123   -2.35133421345113
Zn        7.73852865519010    7.73850139971105    0.00009707180342
C         9.67555160157888    5.39655697799407   -0.00510244564124
C        11.07178039744419    5.08082553073520    0.12340627858452
H        11.48046031301338    4.09152162304628    0.18253325724629
C        11.73464685701633    6.25861077265270    0.18453652072370
H        12.78851915143390    6.41473483287336    0.30262313046113
C        10.74607785453593    7.29687861725629    0.08211034542239
C        11.03453652045652    8.66087808549675    0.07809524532139
C        12.45564059415439    9.06578028564546    0.15052562447090
C        13.34532087832599    8.71146653536991   -0.85889710313192
H        13.01315455833620    8.14682416193351   -1.71535055693379
C        14.66738891873630    9.10471043313024   -0.76428584351209
C        15.14866056120888    9.83806670233771    0.30555586817945
H        16.18268930070277   10.13391378113664    0.36518467285912
C        14.24246008094737   10.17514125097886    1.29514966985563
C        12.91119739296691    9.80781883726139    1.23630065153748
H        12.24086406308833   10.08797090567550    2.03307950884673
N         9.50559044726228    6.74571123812559   -0.00983888810727
F        15.51880484612358    8.76237791787255   -1.74695378581258
F        14.67443179218152   10.88624163489004    2.35120448270440
C         5.80149772886332   10.08037743038655   -0.00534870949789
C         4.40528566130199   10.39610706475340    0.12313431743494
H         3.99660239118762   11.38541520668280    0.18198383920499
C         3.74239685971210    9.21833860957148    0.18438668626027
H         2.68849278571009    9.06225925806745    0.30233351676164
C         4.73095062874555    8.18005493873476    0.08196663112060
C         4.44249182619113    6.81606264214192    0.07805122488356
C         3.02139680682887    6.41115557551091    0.15043038578934
C         2.13176747447331    6.76523117718728   -0.85913317579655
H         2.46381756146315    7.33031947276315   -1.71532872655005
C         0.80964246730308    6.37226047287615   -0.76434431650653
C         0.32832173382053    5.63915203938507    0.30565920758707
H        -0.70573892150350    5.34344295515773    0.36535612479282
C         1.23450324759312    5.30220944353862    1.29533784025341
C         2.56576875642930    5.66948146679102    1.23642407056551
H         3.23622869208572    5.38886392683247    2.03291592143321
N         5.97144994933408    8.73120505805193   -0.01013810709184
F        -0.04187887434595    6.71498776698791   -1.74675089936691
F         0.80259502929642    4.59095107422384    2.35130891552600
C        10.08043362574881    9.67550519567078    0.00520127111502
C        10.39616373826154   11.07173757466045   -0.12318647007800
H        11.38545855572672   11.48040436421508   -0.18239738546601
C         9.21838938833207   11.73461727966566   -0.18437373598107
H         9.06229061335569   12.78849474485910   -0.30250234546500
C         8.18011293655603   10.74604225219979   -0.08215303344550
C         6.81611734955665   11.03449351598005   -0.07826823559056
C         6.41121670195986   12.45559967464676   -0.15055706862211
C         6.76545992535526   13.34522462799918    0.85895864188810
H         7.33022571646079   13.01305627332394    1.71532398934035
C         6.37230882630173   14.66732489305600    0.76434987888677
C         5.63899651037986   15.14864166187610   -0.30550604372264
H         5.34311590126141   16.18266227134689   -0.36507982358507
C         5.30195177236229   14.24247420684378   -1.29515688621028
C         5.66927924477177   12.91122181713526   -1.23636664113543
H         5.38900612116382   12.24089179786204   -2.03308365205696
N         8.73126800988196    9.50554737459904    0.01007734981068
F         6.71468443618180   15.51870738699020    1.74701057239091
F         4.59077027079815   14.67446247274489   -2.35114166758432

