73
CSD_code = OYOHIU | q = 0 | S = 0 | Stoichiometry = C27H35BN3O6Re | MND = 6
Re        3.58689298516735    2.75468060579858    2.03656789984416
B         1.66869169686134    0.90363750929495    4.08609430828322
C         6.36796469845909    0.40256718191038    4.09692365677123
H         6.26344367230533   -0.49472215695403    4.70379894814267
H         5.62191986207635    1.12770649090897    4.41764196015106
H         7.35264294618080    0.82434610926776    4.28195883788170
C         6.20628213236333    0.09887804666480    2.60951411674302
H         6.38287522445745    1.02565484631243    2.05116887912553
C         7.21853659051629   -0.94128109427958    2.13805499095596
H         7.09437105068958   -1.88310700187699    2.66797612654468
H         8.22817388350201   -0.58099999892164    2.31718917509817
H         7.10608181387446   -1.12829381377415    1.07276716747377
C         4.77318090122473   -0.33981679549867    2.25807753710249
H         4.71619333362955   -0.44713422445504    1.16634319918853
C         4.28679240190798   -1.61861091843982    2.96506928954255
H         4.00130250443435   -2.41083368869738    2.26814654097254
H         5.00606759629145   -2.01913534808556    3.68303038223285
C         2.91946627596131    0.08831934394142    3.45767132379283
C         1.14082934997799    0.61962658581576   -0.60754057897368
H         1.86418207151849    0.32737213826727    0.15178842990141
H         1.54645645610344    0.35757702568456   -1.58149574916021
H         0.22730029681480    0.04832344023687   -0.45498763085840
C         0.88219327438379    2.12280249405336   -0.54189740982715
H         1.82251987291929    2.64075670856263   -0.76460961706668
C        -0.15739543043851    2.55624224874411   -1.57158314505648
H         0.18162529673238    2.29567401661368   -2.57084543504321
H        -0.30938120409367    3.63227582078438   -1.53150250054597
H        -1.11324812079171    2.06691953214391   -1.39775149597223
C         0.47136210431955    2.58038703098206    0.86912518314957
H         0.38724429844628    3.67542794398578    0.85312974068642
C        -0.81431958971362    1.93357107325127    1.42262180181339
H        -1.58344734198926    2.66648667189060    1.68033472868475
H        -1.24764709769068    1.18590126556626    0.75483020868316
C         0.90213158695368    1.49631681804531    2.78774386340821
C         3.64838256548454    6.52842377994720    5.63188377477242
H         3.19453524752110    6.40981028870420    6.61333560326301
H         3.41295915989988    7.52462188158311    5.26634094833580
H         4.72759680449893    6.44973027562212    5.74004864997127
C         3.13037888388824    5.48033470799499    4.65121834935061
H         3.60971572196441    5.65173636666248    3.68015015461010
C         1.61976083344723    5.59083981370300    4.45984633418325
H         1.27162719685255    4.83156658971274    3.76148876045698
H         1.37002669209427    6.56704830509589    4.05189369806862
H         1.08650943434302    5.46933386867132    5.40072641559689
C         3.55700371360295    4.06738277858751    5.08925851825272
H         4.65469477477167    4.04168308102014    5.11277966375691
C         2.96260373368575    3.58250510521386    6.42675247906862
H         3.72675018439435    3.31725267290950    7.16200912263979
H         2.26925482587855    4.29546390896547    6.87848374559517
C         2.36304417301340    2.19074898107936    4.78186042945201
C         0.64318568958082    0.17543516223923    5.08140560456609
C         0.68103013022743   -1.17102519910808    5.42842110665252
H         1.45461829418647   -1.80331917021717    5.02077038299763
C        -0.25210114845633   -1.72744509267461    6.28750170977838
H        -0.19365936669946   -2.77858161744642    6.53657701374662
C        -1.25710799693533   -0.94588894219615    6.82659501911203
H        -1.98692931793310   -1.37772361082539    7.49728924684542
C        -1.31847731451792    0.39688344204108    6.49610487905245
H        -2.10038776028559    1.01965613536796    6.90975008375123
C        -0.38210923114157    0.94103141235184    5.63784742587191
H        -0.45052780223608    1.99264747515457    5.39153704958859
C         3.16513307591374    4.54912096840904    1.42174748237082
C         4.11064712411176    2.24825951807040    0.23434951168647
C         5.41160276875945    3.31085900294712    2.41017323239883
N         3.77843429084289    0.64543692135009    2.68081913387388
N         1.46307894229501    2.20503435559887    1.87649810601189
N         3.08355773064519    3.04766625882428    4.15440767266814
O         3.12363073041833   -1.20710842764298    3.68214198620066
O        -0.39762924567619    1.27646424859636    2.61833213384150
O         2.23341131699824    2.40399494355985    6.08740908947207
O         2.86318105851969    5.58046955261264    1.01300278958163
O         4.48011212446694    1.90134809446005   -0.79799471722886
O         6.46147656827664    3.69858625528986    2.67458267616505

