76
CSD_code = OYOKOD | q = 1 | S = 0 | Stoichiometry = C31H37ClN3ORuS2(1+) | MND = 9
Ru        3.95930638698426   11.44111179843140    3.84534542860549
Cl        2.65996352699952   12.35456389923864    2.10720112392458
S         2.83203014224901    4.97635573481351   -0.77003346717143
S         8.23520965282143    6.73493630583291   -0.99803946576246
O         7.52883549401666   12.45249150893988    1.95359439524648
N         3.45902591012381    9.15379920351703    1.87675937948021
N         5.55678812891192    9.53153088043865    2.15382763522731
N         5.57222704465000   12.33042920935628    2.93246025686264
C         2.30707968444946   10.82942932912361    5.28860860456073
H         1.32406606463837   10.38462813109529    5.16726719036642
C         2.41269522595032   12.24623885106594    5.37669912055534
C         3.66096633256563   12.81325154072380    5.67557770834149
H         3.73995862169444   13.88294363296440    5.82835528520856
C         4.80494733484624   11.99868346906846    5.87392586283137
C         4.67905186750408   10.59293590257965    5.81274374764521
H         5.51780163300227    9.96375247683131    6.08956335602994
C         3.42318420015662    9.99708161272101    5.52324353340678
C         1.20277620137894   13.09720760891447    5.16750108130316
H         0.32757127097326   12.64769506053409    5.63235086445464
H         1.00534381848340   13.18384711436477    4.09557988845649
H         1.34948191918084   14.09731187494386    5.56774584129128
C         6.10424769882751   12.62121753101874    6.28905742592989
H         6.95066705714888   11.98856984452850    6.02764042621062
H         6.10609487335665   12.75463405298633    7.37207075888875
H         6.24040201671313   13.59978346079049    5.83307863331248
C         3.26816697623728    8.50717746366903    5.58563021276238
H         2.40389372114540    8.17228501906866    5.01714727817437
H         3.12559719324805    8.20785454407913    6.62507095799627
H         4.15576584071791    8.00102631850327    5.21088034261114
C         4.32377273633321    9.94163614548251    2.52931253588518
C         4.13130257893759    8.24228524229602    1.08710006587396
C         5.46853373959324    8.48060335768159    1.25915685355304
C         2.02448610780928    9.22518523415655    1.96278381974405
H         1.60887970758432    8.21821742480246    1.97085409486967
H         1.62000225216902    9.77557166440322    1.11302463139392
H         1.74780608983734    9.76087018921585    2.86906157724584
C         0.96398887126580    6.31056696771295   -2.37456750965433
H         0.14195361307605    5.67305294267355   -2.05088202105582
H         1.37791512552352    5.87899688239799   -3.28504556921274
H         0.57348204666268    7.29956723680640   -2.60044784327556
C         2.00351112258109    6.40228192724055   -1.31815651719118
C         2.44726983564520    7.50105058601672   -0.66077340656910
H         2.08529654289914    8.49237681166308   -0.86423550553942
C         3.47264468257395    7.22117859529494    0.28971669509844
C         3.79069286248855    5.88970736534324    0.34423609512702
C         4.78436308400146    5.19942009020229    1.20735985561039
H         4.39480718814654    4.23980497722648    1.54073880202864
H         5.02508165738916    5.80931847488250    2.07515656689155
H         5.70693161587501    5.01125426455087    0.65735655497316
C         5.84366290150969    7.93156105873265   -1.78617590324939
H         6.41525253852133    8.20903798710508   -2.66928946747822
H         5.20050981111341    8.76064078107654   -1.50027012101980
H         5.20948908751711    7.08531129276809   -2.05220459901047
C         6.75633938796976    7.57190629887675   -0.67122320179601
C         6.62077027919573    7.82457555206116    0.66857529747110
C         7.72454266005907    7.33873628532867    1.43158053840990
H         7.78216420689059    7.41729797548844    2.50321561806325
C         8.67133273438618    6.72065791420813    0.68334716862876
C         9.93597176896732    6.08252271581012    1.12981462032179
H        10.03738436890607    6.16513468314298    2.20909556081676
H        10.79493370474266    6.55771452235541    0.65748237303131
H         9.95066481329991    5.02841281850836    0.85589961599726
C         6.78234533546170   10.18143527842125    2.55176903769418
H         7.58543346820185    9.88398142000147    1.87243475372248
H         7.05512559810711    9.88005623680669    3.57410708305373
C         6.61070425523836   11.66296729240533    2.49210012408858
C         5.82437220173440   13.65962901932077    2.66409172446289
C         7.04733209032544   13.72144617948451    2.05601304049646
C         7.85848381101787   14.84947744455052    1.54589864131096
H         7.22374906804752   15.71244845648571    1.37011413191768
H         8.34863640860042   14.56241571793759    0.61878819749778
H         8.63017373449988   15.12469527829882    2.26447433465829
C         4.88409776258614   14.75661678837288    3.00103784425339
H         5.15379275736090   15.22456372738004    3.94711072299613
H         3.87180867604983   14.36089349524189    3.06630999449550
H         4.91105927033228   15.51914401964813    2.22739968662627

