103
CSD_code = OYOROK | q = 0 | S = 0 | Stoichiometry = C40H52Cl2N4O4Pt | MND = 4
Pt        4.61540011964328    2.95413580453930    3.21901559670436
Cl        5.78827317194527    4.39740275473132    1.84029296620443
Cl        3.43300724177977    1.48778526928644    4.61092516293247
O         7.51673610683370    1.24274766217468    5.52240581587583
O         6.23045798793614    0.25387829546849    2.54684253448393
O         0.73152533084346    3.47531933501581    2.06636321446368
O         2.53123779192359    5.05286582340387    4.46526829533788
N         6.26597394710945    2.18048993255560    3.95798143441384
N         7.57812213822987    0.33660060496545    4.42485675697008
N         2.87614228007836    3.61959142883944    2.58662887978415
N         0.79488107845794    4.51962616016027    3.03304447141921
C         6.64476320586622    2.21229638455946    5.18721877297997
C         6.25728677124595    3.17881267025368    6.19467363615555
C         5.71810402810915    4.41071572068848    5.81833170524718
H         5.60522651295109    4.66182314738544    4.76926436072316
C         5.35739880744626    5.32305454840183    6.78954797928333
H         4.94790735719377    6.27597706308230    6.49488555425280
C         5.52190171243810    5.01727302153166    8.13206076278169
H         5.23296911745771    5.73298111232041    8.88765791079691
C         6.06121272738114    3.79622560162779    8.50739390026179
H         6.19074423004113    3.56030960992264    9.55309590075305
C         6.43555864682304    2.87823117934977    7.54576227764947
H         6.85732012222860    1.92497495335756    7.82469033301540
C         7.02457066052026    1.10985014281098    3.28802463925653
C         8.08035505684208    1.75864207700322    2.38129059538703
H         7.55342024651944    2.47166466092319    1.74368564756102
H         8.50246166742980    0.98082169661920    1.74655912804617
C         9.17786693678887    2.46965880411261    3.16169117160906
H         8.76798743716808    3.29778637451392    3.73697883869767
H         9.91068090392300    2.87131460215662    2.46744967474199
H         9.67766047439289    1.78217255639323    3.84085777105488
C         5.72105294877724   -0.76841043468584    3.40236338374472
H         4.67498135926763   -0.53354222087094    3.62474703851079
C         5.86668426276962   -2.21128037327057    2.88306335944070
C         5.39498250814103   -2.40561103016369    1.45842354105446
H         5.94105440348833   -1.74303198825976    0.79314393441220
H         4.33618960056952   -2.16778262676938    1.38531203447881
H         5.54800337427300   -3.43527776855639    1.14368857356129
C         7.33620676884309   -2.58518928821043    3.22061351349570
C         7.65110747290944   -4.06933238353540    3.00815615729802
H         6.86036427068006   -4.73571985366348    3.33075452340449
H         8.55653604187570   -4.32858245581377    3.55349026172732
H         7.83158149066454   -4.24996306949254    1.95062449047708
C         8.42232688053079   -1.81002367982793    2.47768994028367
H         8.18457209685935   -1.73807690044224    1.41954179555498
H         9.37267507842271   -2.33098844060543    2.57823408932969
H         8.55001838939547   -0.81764752108103    2.88567943164757
C         7.19675259523598   -2.18013753753597    4.70149672828967
H         8.09413166021404   -2.26140730512918    5.31071264161178
C         6.62284189959755   -0.75650974694149    4.65131000062374
H         6.06492677453432   -0.53622906244261    5.56746392115883
C         6.01990877341173   -3.05201294237128    5.16046231094373
H         5.53433110694859   -2.64400433722126    6.04643856696553
H         6.35794726211518   -4.05798513440210    5.40328815447516
C         5.08774124063232   -3.03788317466745    3.93111095022804
H         4.88272938196653   -4.04089384021906    3.56017668955668
H         4.12782250194530   -2.57338823888790    4.15497709788613
C         1.96790003715100    2.95042114415596    1.96766209421012
C         2.15036987953132    1.74827470190905    1.17991293023135
C         1.04639219224022    0.95267033861808    0.86942762374810
H         0.06913558243685    1.24244390207315    1.22346328353149
C         1.21764703675905   -0.19749729178063    0.12430682144220
H         0.36480470613938   -0.81725051137953   -0.10893612873918
C         2.48004961656157   -0.55535355221372   -0.32393254654467
H         2.60901038918342   -1.45494403321354   -0.90767610951556
C         3.57577436395926    0.24153860510899   -0.02857536358678
H         4.55676775926231   -0.02875855540996   -0.38497719657752
C         3.41990909375287    1.38911024344277    0.72272313395843
H         4.27775828308843    2.01802407319911    0.93620831263497
C         2.24022781354647    4.83204242514906    3.13125667395400
C         2.69213679022092    6.03615435668480    2.29258104551458
H         3.78379036651043    6.01590279419019    2.27392560201872
H         2.37650691599064    6.94216149547924    2.80782085560355
C         2.14669957525024    6.00870884829552    0.87101640512769
H         2.52313339673409    5.14255522813574    0.32991088127841
H         2.47023610682640    6.90207990745146    0.34421936184745
H         1.05918104561119    5.97726477247613    0.87386927894201
C         1.61053828852803    4.31872803491354    5.27143266379214
H         2.12696355000426    3.43189268345482    5.65307378028766
C         0.94463794019537    5.10696649648707    6.41490048849832
C         1.91463940457767    5.88997283480712    7.27261081018565
H         2.47330201246791    6.58954053062282    6.65769149717084
H         2.62061318828971    5.21024074561794    7.74421539116461
H         1.38203868682999    6.43848817238937    8.04601963054435
C        -0.20158914938597    5.88702398098502    5.71437283594196
C        -1.15996785243216    6.57005208021196    6.69506149059350
H        -1.39844670316328    5.96959879981217    7.56457741814363
H        -2.09002164412977    6.81082873373691    6.18374902047965
H        -0.71526451243062    7.50053056938002    7.04155977246246
C         0.22042483054791    6.96087555171135    4.71339478025027
H        -0.62007466589598    7.62367553333510    4.51601057617890
H         0.52103908484066    6.52614637721347    3.77069188840785
H         1.03663785192052    7.55703095978028    5.11311542401493
C        -0.78067533498636    4.62259325821119    5.04912455897735
H        -1.63309224567787    4.77123784110412    4.39007815830403
C         0.42494047776663    3.97893960290379    4.34820002446862
H         0.27386970961788    2.89961081296653    4.24162060267071
C        -1.04718677320140    3.71887750182192    6.26063707529561
H        -1.99233207015683    3.97898170502538    6.73421951090275
H        -1.09726705697322    2.66743441523757    5.97922375207889
C         0.15797798829814    4.01642434427618    7.17680333136188
H         0.77566134251083    3.13276911495909    7.33482062737191
H        -0.15092126044033    4.37437278354608    8.15767911239486

