54
CSD_code = OYUGAR | q = 0 | S = 0 | Stoichiometry = C23H25ClN3ORh | MND = 4
Rh        6.09296133836735    9.16505308751963    8.47041245697978
Cl        6.26658198760227    8.47005502699728    6.34030066503934
N         4.58342618626062    8.83073705584021   10.76367007808833
N         6.28236015260101    9.87361350648943   11.60410232972054
N         4.21445339141033    8.58242811806567    8.56363044432103
C         3.75277681096559    8.39577003304462    9.75303111272953
C         3.02443909694398    9.37377320352771    6.63795890268514
C         7.84089760255585    9.66448669179506    8.22936051122550
O         8.90211183819577    9.94616237381225    7.89247244168963
C         3.17847294446800    6.97518672363122    7.03947123042706
C         5.41979685577591    9.57524135491280   12.63047131007163
H         5.60654736128994    9.83403697945232   13.65008652886265
C         1.27800012581734    8.27114010608097    9.49057873209997
H         1.32124472116318    9.08709350514656    8.78633664927571
C         7.55584323961669   10.58194499333277   11.75613374823428
C         2.44559655873774    7.81414716069301   10.09703845682766
C         3.44999289555766    8.29130853379360    7.41777074070180
C         2.37385935156719    6.76161027982105   11.01014556672221
H         3.27927452492140    6.37852986109247   11.45981888583003
C         5.77886521995247    9.42202373003018   10.42691262124674
C        -0.00253808547206    6.64554346038445   10.70749679370497
H        -0.95277463407989    6.19068433652073   10.94275859735737
C         1.94880829452007    7.82302941574248    5.14770500520529
H         1.35738013211620    7.63795347544576    4.26343959267423
C         2.26607380479549    9.12089774214448    5.50757703514575
H         1.93255322703464    9.94847982435668    4.89845389149768
C         0.06269793199139    7.68885557017622    9.79891192020203
H        -0.83700025692883    8.05117096283941    9.32528733621097
C         2.41817829510496    6.76207590117816    5.89918765222407
H         2.20559776619991    5.74827186914202    5.59248424769747
C         4.35093790208103    8.93291867439115   12.11551074165856
H         3.46574645411668    8.56405048758735   12.58970917609577
C         7.55875599568807   11.78590276182856   10.80953604288217
H         6.80221838115583   12.50475790997815   11.11752346370263
H         7.34081936893188   11.47186908067217    9.79044616771963
H         8.52938574915741   12.27221949948532   10.82784730052991
C         8.68926632444130    9.60264366185418   11.43671042991157
H         8.72599467297287    8.81379457734688   12.18560621366696
H         9.64349761062992   10.12060742361930   11.42975876492675
H         8.52908090551060    9.14517836865833   10.46401143842859
C         1.15537937919582    6.18269206013185   11.31098033410364
H         1.11090141404351    5.36399550221692   12.01383842596412
C         7.73064163112604   11.09180854678443   13.18857588489322
H         7.79355258624385   10.27297376420636   13.90165292729752
H         6.92019757717911   11.75931266079530   13.47336149858004
H         8.66070508993277   11.65115728088638   13.24368106560650
C         3.75878005205508    5.82726153900868    7.80856478845830
H         3.78433957306058    4.93504383034981    7.18821132832380
H         3.16873497549882    5.60739177899875    8.69996245924052
H         4.77881898038368    6.06505238371976    8.11766123033546
C         3.41546655568344   10.76474460011631    7.03482901448644
H         3.20411667273814   11.46835715181761    6.23412372582936
H         4.49772704622786   10.79039308881534    7.25585030739160
H         2.88425642289455   11.08696848372264    7.93314178526952

