60
CSD_code = OYUHIB | q = 0 | S = 0 | Stoichiometry = C25H21FeN7O4S2 | MND = 7
C         2.07324977242976    7.53589384048460   10.23716737705118
C         2.32584977942825    7.76160090202509    8.87940853271514
H         2.58612678702535    8.74491913126122    8.51772484717695
C         2.28622596361699    6.72281583192641    7.97569223742675
H         2.48409755821822    6.88704271751425    6.92855368030910
C         1.99269590922900    5.42780320071585    8.40138747595100
C         1.75343486044416    5.19081434885834    9.75355220619534
H         1.53234453144312    4.18690127063317   10.09049266940437
C         1.79711055380667    6.22969269329097   10.65585741682836
H         1.61262945050907    6.06029980200619   11.70492371390295
C         2.09278149317851    8.58326131363443   11.25832267203814
C         1.88185645458261   12.09931909670920   11.55688507891913
C         1.98966165849912   12.95660248797798   12.73862149418031
C         2.00050659542539   14.35474651621411   12.69296904125378
H         1.94548838200760   14.88847963804364   11.75844021028382
C         2.09642552292159   15.04684963849238   13.88859799100653
H         2.10078513301553   16.12727067091292   13.88791270110921
C         1.56144725766120   12.71766925918694   10.22631486867166
H         1.21718345314782   11.97805563270780    9.50578884528979
H         2.44063258430930   13.21661275563334    9.81768134782987
H         0.77062058388010   13.45410959114266   10.34929537692178
C        -0.61472576038706   10.66267656824747   13.48687171752943
N         2.04069898121364    9.89546427164375   10.84163389160889
H         1.84133249343041   10.12327575656193    9.86993842665197
N         2.07167439948050   10.84798345031426   11.77943100128660
N         2.08610883554333   12.30570218049953   13.89032729083671
N         0.23605704267688    9.90229365541500   13.77698596252594
O         2.13894051957331    8.32278457986449   12.47071158705319
O         1.95748564533511    4.44237010375410    7.47466577854336
H         1.75091298834905    3.59728740329640    7.89321400118868
S        -1.78686812627871   11.64750006680115   13.08637943912956
Fe        2.08766973228411    9.65814576788252   13.88796324254311
C         2.10332077649638    7.53636834039601   17.54102542534752
C         1.84754711716895    7.76092747881049   18.89836858384755
H         1.58451746033757    8.74352393030445   19.25995155070985
C         1.88769272934673    6.72183843121286   19.80171874245229
H         1.68745361363445    6.88518631219831   20.84853801541752
C         2.18491355357476    5.42765111491161   19.37600834479551
C         2.42734825397852    5.19179706930345   18.02421328754226
H         2.65114255648703    4.18850250708118   17.68725294856250
C         2.38315562301267    6.23099315080477   17.12227319314294
H         2.56996540907339    6.06245957522980   16.07348369273286
C         2.08336891708193    8.58427937206936   16.52029416816253
C         2.29186214531115   12.10064151134759   16.22386382971631
C         2.18761095693076   12.95729079356577   15.04118687966615
C         2.18712315201029   14.35550953531667   15.08510705068659
H         2.24721437568429   14.89001899633365   16.01885958901929
C         2.60998060359066   12.72088903607907   17.55405710577034
H         2.93461894960475   11.98039593332287   18.28258890102327
H         1.73541114477502   13.23689280647069   17.95095767096948
H         3.41404802738430   13.44350925185929   17.43410197274588
N         2.13350132028329    9.89615168008954   16.93821993504107
H         2.33224758473339   10.12292738617516   17.91030718221970
N         2.10279135257324   10.84936862728692   16.00129335470806
O         2.03856872557319    8.32428231036726   15.30790116007732
O         2.22029642634798    4.44186959367800   20.30233431715129
H         2.42918932590509    3.59734606358308   19.88379196556432
C         4.78687378603466   10.67023232993789   14.28923680282554
N         3.93853027452459    9.90685100401771   13.99999285291802
S         5.95676480254406   11.65805171459592   14.68885935382956

