32
CSD_code = OYUHAS | q = 0 | S = 0 | Stoichiometry = C13H15MnO3 | MND = 8
Mn       -0.96484424317406    2.16114036559824   10.56989806252786
O         0.39740122360237    3.73801165349964   12.63002466157527
O        -3.73927524054177    2.99506835603042   11.04973637716421
O        -1.39462630029427   -0.34213524387667   12.04377810839228
C        -0.19697337543345    3.81730605701316    9.20191646956829
C        -1.12045585834237    2.99743426026331    8.53800311499149
C        -0.89031739341979    1.59042794211527    8.52283616954312
H        -1.51077524475652    0.95765845233630    7.89398069697988
C         0.27366818533415    1.03727915995939    9.13427888815933
C         1.16496134683087    1.90479831141665    9.78007523442021
C         1.23653464654716    3.32313871223580    9.24689075008766
H         1.83908218619995    3.95162384182864    9.90660407495688
H         1.70656561807435    3.35509639443174    8.24658271041444
C        -0.37999523612480    5.31112180537777    9.24632565814798
H        -0.14687065408350    5.74258042959772    8.26897170696967
H         0.29205790442753    5.75553111433073    9.97799895082829
H        -1.39860463354061    5.58899237885235    9.50849610212242
C         2.41598622188175    1.38441561741048   10.43618340661764
H         2.22124854330938    0.50391294287570   11.04463641876941
H         2.85668751562750    2.14763808099644   11.07479452539761
H         3.15185659615561    1.11845601338557    9.67233418058368
C        -2.33272716725673    3.55551061668630    7.83995007092963
H        -2.88348177339281    4.25511765327966    8.46540144432602
H        -3.01133003053673    2.75997562788919    7.53857511194276
H        -2.00740625279581    4.09333175629972    6.94703803131240
C         0.51147629155503   -0.44808300255012    9.05899240230583
H         1.34570001705185   -0.63638439957406    8.38007339180399
H        -0.36765440178232   -0.96637145132578    8.68122814102988
H         0.76925800459432   -0.87426538350114   10.02638989583224
C        -0.17141636065439    3.10698282416287   11.85652026938355
C        -2.65145167338666    2.65575888947626   10.87885519259128
C        -1.24177846167525    0.64913022347835   11.47672978032475

