59
CSD_code = OYUJAU | q = 1 | S = 0 | Stoichiometry = C22H32IrN2S2(1+) | MND = 7
Ir        4.42841641779706    8.34923755674119    2.20429780974245
S         7.27144417859269    7.40119569324050    3.50405068738558
S         4.56623984520551    6.25287264787598    3.21411690971444
N         6.27923716715760    8.53677005161433    2.74046917077115
N         6.61964922776141    4.96504504843528    4.30367531534777
C         3.30864914066131    8.63814174692644    0.31890878566949
C         2.41038059134816    8.20142807460743    1.34819563546988
C         2.39980289818058    9.19289405276993    2.36670484594675
C         3.27620885322543   10.27269696765456    1.95406820637371
C         3.82627855175992    9.93533794383655    0.69013989404785
C         3.52261172389021    7.98240939434415   -0.99950624945522
H         3.39385827077681    6.90501633506702   -0.93342712799949
H         4.51398001369634    8.19894176933052   -1.39066865115601
H         2.78926395932829    8.36495219371498   -1.71139656809684
C         1.51206831080998    7.00967707030627    1.27506907196403
H         1.30187096453320    6.61370956450386    2.26533410263304
H         1.95402152275287    6.21804189635868    0.67604226879443
H         0.56597349334019    7.29628970513720    0.81515925485729
C         1.50452194160668    9.22788133378712    3.55672443669812
H         0.59213314835098    9.77069067298836    3.30541673796113
H         1.97592098597996    9.73725582248592    4.39384079504279
H         1.22452781667042    8.22519976189181    3.86874312180532
C         3.41044625696798   11.57508507954288    2.66440862216654
H         4.30957199805303   12.10542958623670    2.36129624859530
H         3.42891935115088   11.43945749313295    3.74345873093863
H         2.55168755847246   12.20333417726311    2.42339602771270
C         4.60680971070279   10.83062192547894   -0.21157036021907
H         5.13444753419625   11.60049036583324    0.34440743838012
H         3.92080919840149   11.32321890974734   -0.90216292946028
H         5.33157259046741   10.27293331481178   -0.79892531726903
C         6.17850385078750    6.08674187216203    3.73736202198634
C         7.99328584228107    4.87458365422234    4.75985546858349
H         8.63312938671897    5.36745979474559    4.01877545379462
H         8.26578455743167    3.81872225411646    4.79711746752171
C         8.21182499185995    5.51194633436809    6.12941928739860
H         7.88218307999087    6.54736396494239    6.13373535945059
H         9.26990154557655    5.48763524753265    6.37154345284361
H         7.67191540063046    4.97011753095890    6.90011551808849
C         5.71295059325604    3.85574195026588    4.54013511642695
H         6.30980560701623    2.94491954204882    4.60070216748703
H         5.04148826100925    3.77614085075749    3.68055923685708
C         4.88950793517923    4.02745012832890    5.81278027990179
H         5.52743258792271    4.05263343393808    6.69124796135865
H         4.20341973254072    3.19163734919558    5.91026176244162
H         4.31008004868037    4.94557011364788    5.77202988206043
C         7.08890650677959    9.65016973942646    2.28311912456365
H         7.97261716788514    9.76349389945005    2.92622327711270
H         6.49955219843785   10.56771837622448    2.38060357870338
C         7.55373413184183    9.51009805998157    0.84696577065245
C         7.24804742811076    8.39898723422478    0.07593986611103
H         6.66575011694104    7.58613260026043    0.49389891586902
C         7.67932925872994    8.31758342347158   -1.23848264781293
H         7.43665194787121    7.44590457312847   -1.82799877107644
C         8.42243125732655    9.34529824345231   -1.79126863160532
H         8.75892011534311    9.28123308811593   -2.81427511009396
C         8.73539706786125   10.45600802276884   -1.02375245603046
H         9.31772907046094   11.25945778403599   -1.44759765252369
C         8.30422215640840   10.53782826105778    0.28721086068184
H         8.55107493327660   11.40336651753294    0.88450652490633

