82
CSD_code = OYUJOI | q = 1 | S = 0 | Stoichiometry = C33H41IrN2O2PS2(1+) | MND = 8
Ir        9.30142851882881    2.16479679285548    3.97159419266366
S        10.71907403365000    1.75680456434497    5.67055468007833
S         8.98039537778396    4.24317588425236    5.16284250275363
P        11.17265684174477    3.02005141774234    2.87462936090655
O        10.09523196562170    0.98659800789997    6.71789232507321
O        12.05481170734403    1.37383920117636    5.30422779669888
N        11.00654359899736    3.35390411591287    6.51581557408211
H        11.62707918108581    3.27290709263340    7.30742351958212
N         9.89632597304913    5.19862631133591    7.43772037140166
C         7.06354448395951    1.86752560852270    3.74409337612666
C         7.57572151772535    0.85559508024038    4.60556923146221
C         8.49637930915237    0.05126337566937    3.85652502039682
C         8.58329183838309    0.58832950503822    2.53327502994208
C         7.71125857896494    1.73982581047333    2.46730444438943
C         5.96008421783010    2.81870991818262    4.05079595225911
H         5.01518914232406    2.38893711032681    3.71553713798784
H         6.10435108156709    3.76551480033829    3.53671087158197
H         5.88803979530793    3.01295702652561    5.11706058991615
C         7.10471646844234    0.52413920518393    5.97820173930718
H         6.45568530588861    1.29987659940650    6.37451564145396
H         7.95350367871438    0.39750922373872    6.64838647812499
H         6.55006466834406   -0.41434197177648    5.95941676296540
C         9.10782254216327   -1.20174992448760    4.37626459776951
H         8.32776213624840   -1.95133235709378    4.51844248936243
H         9.57414988061490   -1.02439990872609    5.34487299898435
H         9.85173784083464   -1.60719127367977    3.69577673250065
C         9.19751221710819   -0.04709111065768    1.32909510129253
H         9.81546458240222   -0.89972456608424    1.59241889046401
H         9.80344558469117    0.66431784304092    0.76988267528465
H         8.39980866660755   -0.39457459853949    0.67133860846974
C         7.25772410028167    2.38453054283595    1.19682683561671
H         6.44827648300530    1.79130895370314    0.76852989150353
H         8.06332506053813    2.43524617220889    0.46981756022328
H         6.88266181465951    3.38813634423313    1.37319743089608
C        10.04901745824171    4.26726950907975    6.49859428044576
C        10.76979343735765    5.23374016298465    8.60148914443791
H        10.89934570496881    4.21309266609811    8.97706897010906
H        10.25513150371208    5.80254525921038    9.37754769894197
C        12.12852160691643    5.86905379696616    8.31821406629625
H        12.63228325699347    5.37021058746849    7.49349707118414
H        12.75195030222695    5.79789819816341    9.20522085656909
H        12.01639696815188    6.91887481767979    8.06287804725606
C         8.91098030985408    6.25550865618801    7.27687509605721
H         8.65651700529584    6.62988781709511    8.26920666669413
H         8.01365379951817    5.82075899581546    6.82898487216227
C         9.41232019928881    7.39563681954158    6.39780974401495
H        10.27299012037349    7.88483113051355    6.84447256757320
H         8.62185147574989    8.13039886600965    6.27845316815331
H         9.68984079441972    7.01948761572013    5.41731306567192
C        10.62417465976931    3.80799597956796    1.32327280963252
C        11.21697844788390    3.56383104093944    0.09027712033572
H        12.03965391772805    2.86919894319247    0.00889110400693
C        10.75078049398042    4.21039245384654   -1.04256401499484
H        11.21669120101461    4.01599060447400   -1.99647431764192
C         9.69601755996793    5.10294622765260   -0.95516027119421
H         9.34304597820334    5.61048207473131   -1.83934759458835
C         9.08462730483694    5.33139178994938    0.26797263212121
H         8.25131924672845    6.01425938425354    0.33587143723492
C         9.53565893634299    4.67695082989297    1.39880421396175
H         9.03599691169643    4.81757278537828    2.34940562648335
C        12.49167506816658    1.88151026492723    2.37519979731761
C        13.66519667860535    2.39548319619310    1.82462559209484
H        13.78719330661449    3.46487152359198    1.71553631343220
C        14.67474505394362    1.53667336523669    1.43151785649254
H        15.58337075175418    1.93658678256557    1.00752696896434
C        14.52471088547558    0.16752595006023    1.58883848428622
H        15.31805856639152   -0.49884223064748    1.28709877739154
C        13.36350500634802   -0.34377514903414    2.14434277309494
H        13.25506599993039   -1.40912844390080    2.28003294495453
C        12.34848297991083    0.51051258425264    2.53634845735054
H        11.45510382218035    0.12672043147195    3.00236573301836
C        12.10532797139469    4.35169808541279    3.70848201597135
C        11.72874823008003    5.68690394342201    3.59268290392514
H        10.88379218834467    5.96205404030003    2.98026987791723
C        12.45036536436057    6.67191465294424    4.24462883458382
H        12.15702383312828    7.70581452410944    4.14143028172740
C        13.55061153659159    6.33606280881107    5.01521903474404
H        14.11673036705636    7.10664758556285    5.51620789161456
C        13.92572155986755    5.00679531196315    5.13764166171954
H        14.78640108033113    4.74064316077032    5.73321239073570
C        13.20723141172434    4.01599917892543    4.49367278094390
H        13.48993154270810    2.98020062385055    4.60368815532337

