47
CSD_code = OYUVEK | q = 0 | S = 0 | Stoichiometry = C16H25I2IrN2O | MND = 8
Ir        2.54514468950257   10.16345957972684    1.59762839962420
I         1.27495118991350   10.48622967312198   -0.76034198545845
N         0.57788296636781    7.80578719371938    1.86361183641612
C         1.86668037010278    8.22661854492879    1.91464007195252
O         6.02967179907309    6.20299029947448    1.84170518207301
H         6.32717119323097    7.02164081849067    1.42208884600894
I         4.81805357924843    9.50556782527991    0.30196721011904
N         2.54458961935637    7.19462410953258    2.48075540920653
C         0.46636621497797    6.53697574388742    2.35681937372681
H        -0.46989955864840    6.01990244045035    2.39276566426879
C         1.70038047486035    6.15220137327843    2.74484372610480
H         2.04343356132751    5.24119039181538    3.18804380369320
C        -0.58099795747310    8.50549541479541    1.37488603785457
H        -1.45965364167851    8.15141243092090    1.91283039210024
H        -0.71812409702619    8.32325319719939    0.30822764802151
H        -0.47531848913881    9.57439221367580    1.52625754236414
C         3.95194931514230    7.07424439891712    2.75570797480781
H         4.08603979845389    6.68050426707123    3.76702960481887
H         4.42167394212868    8.05388469668151    2.70013087100884
C         4.63939802021308    6.13188124070195    1.74142121430128
H         4.36624576735384    5.09389641779844    1.94981633875045
H         4.29449056429927    6.38925942346847    0.73248285803970
C         3.42589806387369   10.91297991040767    3.49981424268111
C         4.52149712572323   10.36705560242387    4.35700669498617
H         5.41770454350306   10.15921400608080    3.77323291697716
H         4.21650364422683    9.45309519333049    4.86310456952267
H         4.78843959884055   11.10287508306233    5.11875629633971
C         2.02459486869653   10.72896746798033    3.69989674169913
C         1.39631047887510    9.88116678240393    4.76026407005081
H         1.30293957429684   10.46263366352615    5.67982696054788
H         2.00009135314922    9.00186830007198    4.98001064406726
H         0.40074843759568    9.54776795444975    4.47139238820014
C         1.33734947435220   11.60518325190687    2.80902478121716
C        -0.12339092576844   11.92012838588411    2.81281364598286
H        -0.70031757523772   11.15165061624057    3.32417821115883
H        -0.50907033202232   12.03577424084087    1.79962796523335
H        -0.28638746992068   12.86615433851752    3.33368755810446
C         2.32681420357352   12.40523829560748    2.12375321495476
C         2.02464227946756   13.58565314561483    1.26198300269811
H         2.82049349940819   13.76069520376915    0.54054538840074
H         1.92849300088218   14.47767316098947    1.88526287186204
H         1.09381300982067   13.45091530272297    0.71496927106064
C         3.59777702311521   11.99154692186677    2.55225958687567
C         4.89365681696646   12.65767815536574    2.23067307569286
H         4.89663562529508   13.04715903081287    1.21420377836904
H         5.73216545099765   11.97257532005304    2.33380395562814
H         5.04986890869941   13.49483897114219    2.91479014788786

