102
CSD_code = OZADAW | q = 0 | S = 0 | Stoichiometry = C51H46Cl2P2Ru | MND = 5
Ru        3.37924716061395    2.27691166192528   14.78597159910200
Cl        5.43240005709852    1.84154675555398   13.77053480969426
Cl        1.48316591350351    1.80953413913058   16.08223750933390
P         4.49655840144173    2.29682652860187   16.82217348927586
P         2.25546970424659    1.78699144092625   12.82394752912452
C         3.20283314561228    4.17998716935019   14.55329470198001
C         1.95939492323218    4.83968725423827   14.32979210873343
H         1.04136378242297    4.32564726284774   14.10298881615230
C         2.07650143947762    6.17877427596087   14.57481344150886
C         3.47723236595847    6.45726185684973   14.87739305729957
C         4.15382708319060    7.62946519734744   15.13808885003514
H         3.63538284030903    8.57641447768608   15.18809799038978
C         5.53450785788042    7.57769841788420   15.32437187865516
H         6.07457386179714    8.49003054080404   15.53347636312755
C         6.22406722779196    6.38348496976093   15.21685718960523
H         7.29791364407746    6.37130154804154   15.33216858813242
C         5.55192617248702    5.19126548576638   14.96056019186456
H         6.09731659679243    4.26782634709198   14.83528202939444
C         4.17707263403716    5.22245716218684   14.83162169316149
C         0.99121258028556    7.19870213018864   14.61507407639005
H         1.38594040206572    8.14116121900543   14.21468595224908
C        -0.23599154711500    6.79276473983174   13.79764800514468
H         0.05575215565875    6.60606056994283   12.76171765479618
H        -0.65050112730972    5.86649868836679   14.19933385443982
C        -1.30010244027409    7.88379515861266   13.86179757771412
H        -0.90438926521789    8.80732252162082   13.43164522925054
H        -2.16953172841539    7.58681875107906   13.27146750499734
C        -1.71481012871652    8.13408306335128   15.30875636176007
H        -2.16289467030544    7.22518048549939   15.71663882795472
H        -2.46516000359464    8.92660632401586   15.35150231723443
C        -0.50305006692106    8.52001491329560   16.15158820372799
H        -0.09443568338822    9.46557515293235   15.78616695527698
H        -0.80458741508143    8.66671896239144   17.19121505040357
C         0.57205576410750    7.44088017565962   16.07548703047291
H         0.18811509716794    6.50466958331083   16.48732074033530
H         1.44368757151926    7.73547217872688   16.66435796368768
C         3.50110824867803    2.85025450031958   18.24324072032764
C         3.38408787404801    2.13923535543836   19.42958406567793
H         3.88550787697866    1.18912970247210   19.54835858610059
C         2.60324557944254    2.64212906420217   20.45640405490809
H         2.50739296109326    2.08408641855042   21.37668964175485
C         1.94089723345946    3.84827773782761   20.30552726458349
H         1.32953129943721    4.23209954799773   21.10911895653779
C         2.04980388928867    4.55608695999667   19.11855797744206
H         1.52351741310293    5.49114417444311   18.99300379079653
C         2.82348355026280    4.05786811570712   18.08856198910064
H         2.89553896415687    4.58706702891773   17.14512893853119
C         6.11833223220122    3.03162403481174   17.18701422283581
C         6.24226198344746    4.17981064368404   17.96167760302080
H         5.36430584070757    4.63538052919162   18.39766146208985
C         7.49006130201460    4.73819543520766   18.17294031625170
H         7.58198730542658    5.62778889978399   18.77899988121555
C         8.61594056994181    4.16473405776419   17.60611770569615
H         9.58827307149430    4.60571802746716   17.77084620496510
C         8.49413845543624    3.02814975279327   16.82214834769717
H         9.36981279187721    2.58435292588312   16.37154632570545
C         7.25170058202683    2.46250792888439   16.60972175993557
H         7.15026681896076    1.58743498488923   15.98272063225325
C         4.81824605288791    0.53174238833606   17.12325254188779
C         4.16126807428657   -0.38771255399573   16.31059305300035
H         3.47181186869274   -0.04135582369125   15.53437552231790
C         4.36576376839377   -1.74480075765163   16.47782147745020
H         3.85005922521536   -2.44882837473257   15.84083105784403
C         5.23185730666491   -2.19231319198200   17.46134008538773
H         5.39494256654475   -3.25158407042464   17.59555861982416
C         5.89608022759218   -1.28290539255152   18.27033573463464
H         6.57600784930804   -1.63526132984620   19.03254179934266
C         5.69623802314096    0.07488176099029   18.10374937971606
H         6.22768327927712    0.78568446833792   18.72263118013588
C         3.21227668639876    2.11206250461699   11.31130099279466
C         3.97409675383813    3.27600492793193   11.26785047601581
H         3.99332850300986    3.92816225345396   12.13529135588383
C         4.70933746388554    3.57936464469122   10.13746429224727
H         5.30638481513757    4.47883260715363   10.10935062368649
C         4.68760736275802    2.72337944415193    9.04765990578192
H         5.26896498172651    2.95536404936965    8.16727735388813
C         3.92551303938872    1.56714765353040    9.08642189873806
H         3.90938086289200    0.90089141559611    8.23597666948617
C         3.18553609917942    1.25872179348677   10.21389202456499
H         2.59048928390501    0.35591617568258   10.24520696543413
C         2.02942249813463   -0.01971154096078   12.77145338317685
C         0.79748129079098   -0.65672151483768   12.68332666888116
H        -0.10885510986280   -0.07603180701926   12.59131948832224
C         0.73456104249117   -2.03964993974934   12.70997509829602
H        -0.22502960056386   -2.53141170750210   12.64207968948883
C         1.89114172415683   -2.79259272568850   12.82313184868746
H         1.83333032963272   -3.87116327437240   12.84645681221770
C         3.12307286177550   -2.16151696832039   12.90420221604422
H         4.02931749843351   -2.74473581619521   12.98485095475977
C         3.19400189075794   -0.78186219320661   12.88223778118999
H         4.15717315311504   -0.28440336371929   12.93798378562854
C         0.61873067987973    2.45936382180918   12.40119425476573
C        -0.41696043692644    2.31258947802218   13.32422136197891
H        -0.22830965685399    1.80030826437879   14.25814803838794
C        -1.66096228579452    2.85596137069292   13.06315935861021
H        -2.45791074436694    2.74009023669491   13.78335755823387
C        -1.88189688603109    3.55622527049491   11.88753800860965
H        -2.85261287647694    3.98565568605968   11.68740278253220
C        -0.85312898204527    3.71286891167923   10.97427284343570
H        -1.02041554720868    4.26487663588371   10.06063677915026
C         0.39482180225695    3.17004427389033   11.22683561238678
H         1.19509311073257    3.30450937347479   10.51334707530857

