105
CSD_code = OZAFIG | q = 0 | S = 0 | Stoichiometry = C38H60N2O2P2Ru | MND = 6
Ru        2.51695516617382    5.42874343116365   15.24298221953971
O         0.27780832133107    4.84255009936267   17.12139865839612
C         3.90842560817557    4.35283347404533   16.31212780432869
H         4.81820465390980    4.15590782072656   15.73715440467531
N         7.97614392317792    0.87502422382775   20.18242958262318
P         3.27721869693324    7.42218153245445   16.32816637691370
P         2.16426273203121    3.38046055808008   14.02034765061705
N         1.35783296457876    6.60753113086821   13.87348491618633
O         3.94696672294497    5.90462991011535   13.76089993943065
C         3.91344975126707    3.87226939303116   17.55691104933167
H         3.04430979134205    4.00609222307853   18.19572216513864
C         4.98808946708370    3.12446645867513   18.20218934429820
C         4.78630380777633    2.59704918304648   19.47840880351817
H         3.83490395598817    2.75792111959144   19.96800138183314
C         5.75982365729858    1.87848191474658   20.13829997477443
H         5.53519616796497    1.50358838733508   21.12391262439831
C         7.00874646746210    1.64114232445934   19.55171575477869
C         7.21903438589874    2.17971748911030   18.27604390356353
H         8.16358613847400    2.04333898059840   17.77399216941116
C         6.23706687508219    2.89446522073321   17.62486281057880
H         6.45662380125864    3.28863350949298   16.64329091907174
C         7.81012972538617    0.55428665560510   21.57958848279895
H         6.90034814855654   -0.03082942112878   21.72313719260815
H         7.75703405324774    1.44774232140630   22.21600343317411
H         8.64985326948029   -0.05395261393421   21.91039686386615
C         9.33161743339986    0.92145330357158   19.68777670872536
H         9.37548123997665    0.52261488922122   18.67270511068910
H         9.96526266304424    0.29811356096927   20.31546592694798
H         9.74343533070053    1.93923837731731   19.68246736468777
C         1.17845265225159    5.05885942208393   16.42168575560025
C         3.43579947680648    6.48383540966221   12.73538702342143
C         4.17298964905097    6.76413321756718   11.57631504843011
H         5.20691050611562    6.45304078983528   11.53839237239971
C         3.59805458757403    7.42960867373264   10.50484234333456
H         4.20204469845498    7.62267117429339    9.62882708283201
C         2.28919466242414    7.85825336364285   10.53061344247977
H         1.86056725973893    8.38800764057092    9.69332960586909
C         1.49832474569161    7.61144736974450   11.66077380697366
C         0.15454955973882    8.02708659989109   11.79137548270023
H        -0.31372922375676    8.56628699914088   10.98046180847099
C        -0.52580852585965    7.74534382983937   12.94542273220488
H        -1.54942113644681    8.05835928006940   13.08431824020915
C         0.11099542846939    7.02811086002685   13.96632306223979
H        -0.42260117979218    6.79614065861076   14.87874756921627
C         2.06030341625757    6.90319696531099   12.75704582707173
C         2.25265095670510    8.00828825678934   17.77839223353148
H         2.66691350085151    8.96697107481633   18.10538402097309
C         0.80116603991555    8.22100080497169   17.34939767226842
H         0.26562246562728    8.79310072625681   18.10664679045286
H         0.30150304014886    7.26365743241924   17.23778892400105
H         0.73020918558385    8.75347398640814   16.40273883870891
C         2.31022363875527    7.02417870109806   18.94166518963963
H         1.57057352254678    7.29888936590875   19.69269254254655
H         3.28758958368920    7.01378773522707   19.41670590665377
H         2.08857755270226    6.01904481037247   18.59127971735881
C         4.96237490923576    7.25508165287018   17.13084479037153
H         4.77941351654784    6.41212865846048   17.81123462804569
C         5.46508510265039    8.44354204629545   17.94720459706754
H         6.38174253154294    8.15101507781423   18.45889043012809
H         4.75150499952930    8.76204302072617   18.70213305747818
H         5.70180222484441    9.29081930396187   17.30815657413254
C         6.04296459143904    6.80755319493182   16.14288516678985
H         6.77032375289917    6.17792246174461   16.65278653429429
H         6.57239703334723    7.65906516089052   15.72318475416442
H         5.60764445032735    6.23689467644969   15.32672542546666
C         3.30273524311799    8.99057346908741   15.26641195235174
H         2.43277709595093    8.86237342671269   14.60658553861627
C         3.13692955718837   10.33039506251392   15.98603077132356
H         3.21787704519234   11.12663543646710   15.24562461899639
H         3.91490899855895   10.48764664254303   16.72763022275980
H         2.16896102043345   10.42947531165698   16.46783580773129
C         4.54844418920349    9.06260534122749   14.38206796153165
H         4.36408804799348    9.72562135849677   13.53656425203646
H         4.82070786171814    8.08862409999992   13.99106225694415
H         5.39178100687061    9.45987410909931   14.94181295052389
C         2.52567008740327    1.82601613014175   15.01154798265500
H         3.55395959571830    2.01029364202744   15.34931121510297
C         1.65835194527864    1.71851647377984   16.26361745383611
H         2.14001114609156    1.05915293931617   16.98405098380928
H         0.68200423325602    1.30075444509733   16.02767175628863
H         1.53498340632185    2.69089221169039   16.73069023899986
C         2.48887892472810    0.49303076122417   14.26886874521742
H         2.66523889842572   -0.30641080372831   14.98794993093843
H         3.25755118148937    0.42581123848638   13.50806827782406
H         1.52002910379425    0.31173142327679   13.80906405655106
C         0.46202382915342    3.07832001732041   13.28143956490845
H         0.39777163184717    2.00978189952202   13.04345940097832
C        -0.63201032578054    3.41366830016407   14.29064811256924
H        -1.60908671534929    3.16828977378655   13.87432063556675
H        -0.61587376580272    4.47749653015938   14.51576158512317
H        -0.50952589131617    2.86837895130820   15.22061756203346
C         0.21893605945661    3.89024692172393   12.00920480731154
H        -0.79288785470206    3.70397160747723   11.64891585524455
H         0.91009711688020    3.63821093130030   11.21106784973994
H         0.30578328913073    4.95409847274645   12.21148002352538
C         3.26361855741038    3.19129884601889   12.50302001802829
H         3.10475762000366    4.14768340000113   11.98568746002210
C         2.95745621118563    2.06422613564186   11.50460315551187
H         3.09518548543287    2.43291871248859   10.48862966391793
H         1.94849107419290    1.67407222165352   11.58593427612398
H         3.64796848392073    1.23532696965437   11.63912582001054
C         4.73620052694468    3.13395985321049   12.90653259851543
H         5.35865732973977    3.13045619098889   12.01187418852360
H         4.95716132374830    2.23707159486645   13.48184923728366
H         4.99736332983672    4.00797409069510   13.49737867666725

