83
CSD_code = OZALIL | q = 0 | S = 0 | Stoichiometry = C36H43BrP2Pt | MND = 4
Pt        2.57815015251540   11.67713460421755    4.11513144804181
Br        4.85592779197419   12.35538744463492    3.66721751856303
P         0.51675333283757   10.98421120488963    4.73622130617379
P         2.82737333470326   12.14157456078404    6.45603414377369
C         2.24624410058125   10.93699021111468    2.18564494075581
H         1.16041077708235   10.78145011675663    2.06138032004000
C         2.91471812137452    9.57187894414713    2.07166479375484
H         4.00142668915057    9.67663705497709    2.13707467037282
H         2.57741090279042    8.91317533421868    2.88239376570468
C         2.56189886917675    8.91273641443886    0.73215066479496
H         1.47353911022653    8.77397794057430    0.69488900844974
C         2.97690872512027    9.83877399279802   -0.41027828483856
H         2.70240161973016    9.38775036702486   -1.36765449970452
H         4.06250576381127    9.95917639433177   -0.39610153687026
C         2.31402686320974   11.20683520885242   -0.27599131233775
H         2.62370402706607   11.84383979802583   -1.10663446610863
H         1.23020987223256   11.08197187468764   -0.32668933766393
C         2.70508781221320   11.85695256945820    1.05597814618816
H         3.79804792920212   11.91845068414875    1.07774468748560
C         2.17076383183802   13.29345195709132    1.23336524502829
H         2.31959315328698   13.54895006595220    2.29858389598992
C         2.98255485345129   14.29154598076336    0.41169089173966
H         2.62865814736509   15.30536096483273    0.58908776823549
H         2.89295895364847   14.08253409246064   -0.65210500330547
H         4.03272701558161   14.24203708779616    0.68862238651666
C         0.68301599804138   13.43932828688812    0.92247749588258
H         0.33736204115459   14.43041146390682    1.21143166244410
H         0.09431733813104   12.70610656081350    1.46976939416796
H         0.49715816402004   13.31542627367100   -0.14174112524931
C         3.23037318174870    7.54695753389302    0.60824803383538
H         2.96958549979510    7.07618250513624   -0.33757715330014
H         2.91280132596063    6.89148420786920    1.41711328714882
H         4.31250016632598    7.64991700204324    0.65309506267087
C        -0.76188807695246   12.26573457945422    4.61253472389253
C        -2.10656429757959   12.01314424103433    4.86497521990822
H        -2.43310200346661   11.00783547930080    5.09687040764436
C        -3.02037127551159   13.04905373766220    4.80687912244483
H        -4.06604877606444   12.85419052921027    4.99577400450821
C        -2.59838493684103   14.33593105453985    4.50808771967563
H        -3.31847974519595   15.13944768195342    4.46286804716756
C        -1.25850457362833   14.59242471000552    4.26770200774620
H        -0.93021850701587   15.59519633888917    4.03836564252399
C        -0.34224728459834   13.55799814132593    4.31970174712982
H         0.71218949645084   13.73588952174947    4.12906913116372
C        -0.22201788029648    9.48872690983543    4.02797097178481
C        -1.10968332887108    9.57776988934769    2.95871005112090
H        -1.45914343203405   10.54809262723285    2.63204124785890
C        -1.54379737356249    8.43217828917276    2.31777028592713
H        -2.23407055943366    8.50909822394751    1.49056130965827
C        -1.08531893321189    7.19044052245144    2.72602479920972
H        -1.41994465032010    6.29749486232210    2.21969295051424
C        -0.18610703899448    7.09601677143001    3.77570922806141
H         0.18318976379341    6.12961277897701    4.08631627122749
C         0.25253786018638    8.23889358819300    4.41773595561610
H         0.97465253768945    8.16146143972487    5.21932646271587
C         0.49527729985679   10.68758261660254    6.56665262542735
H        -0.53699381794066   10.55606457265609    6.90807414590580
H         1.05228584873052    9.76977571009377    6.77938827240962
C         1.16977527871936   11.86804585201381    7.25550291507995
H         1.28790604477439   11.68665693734149    8.32828269363550
H         0.56650620458324   12.77107686760371    7.11250332137406
C         3.60375343701689   13.43620726916193    7.46418026039267
C         2.89891744787594   14.33451191175210    8.25747800412218
H         1.82430399771455   14.26232360182071    8.34689563802838
C         3.57733339030649   15.32599288959483    8.94421841617689
H         3.02738917815909   16.01584640389392    9.56831746661769
C         4.95285289487813   15.43939328606785    8.83119080819274
H         5.47529582168943   16.21673930619035    9.36893940937109
C         5.65587480122625   14.56328262924177    8.01874889072647
H         6.72633653771266   14.65876027521870    7.91583016491606
C         4.98597778284171   13.56954302476828    7.33306921215027
H         5.52543500008649   12.89238366569517    6.68439840516088
C         3.68004944154911   10.65416523093718    7.07611528122507
C         3.94170614351506    9.61866163421021    6.18588256672548
H         3.68677509044516    9.74116649717600    5.13270266139714
C         4.54032030302808    8.45264578652567    6.62717599575181
H         4.74596181497990    7.65435096745926    5.92933587179000
C         4.88137774054242    8.31657794747019    7.96233455482941
H         5.35143544708122    7.40856764069576    8.31042261778235
C         4.62755625973196    9.34815533710912    8.85336629298361
H         4.90044024058823    9.24225560185354    9.89339895350146
C         4.02877610324159   10.51450686424694    8.41569451869591
H         3.84028181718577   11.32382905161493    9.10847490975603

