23
CSD_code = OZAPUB | q = 0 | S = 0 | Stoichiometry = C10H5O6PW | MND = 6
W         2.05340938036022    6.71840689336853    3.95543167609844
C         3.64274510528149    6.35832971536626    5.12123387367641
C         0.83751868905771    6.36525497786986    5.50876336904508
C         2.13316175466181    8.62320558635239    4.48343651231842
C         0.47551251187212    7.15286978303272    2.79867505875044
C         3.25283571061350    7.14858354268669    2.40894325273169
C         1.72557796297487    4.09650052541489    1.49433936359456
C         1.68738926090283    2.86038609217009    0.88238211939407
H         1.53226439825587    2.81898517217237   -0.19033768931835
C         1.84254982682905    1.66934563568739    1.57941556500545
H         1.80107178548691    0.74518139482898    1.02217792585674
C         2.04886482222315    1.61226062510090    2.94682455584949
H         2.16049233375039    0.63936988139229    3.40553232495431
C         2.12268941570720    2.72888415406721    3.76123245299189
H         2.28675484028909    2.59055140710031    4.82258200260240
O         4.54409593480777    6.21355529515971    5.80628963740335
O         0.15258787970603    6.23057203633829    6.41196518005055
O         2.18276449186382    9.72553720484813    4.78164620499703
O        -0.40568121217061    7.46457934185533    2.14661452381417
O         3.91821238633403    7.45218637706032    1.53450519811145
O         1.57709759465031    5.26683639190292    0.81365335638891
H         1.43815728800320    5.10702020813699   -0.12938636721529
P         1.96482783854270    4.35049775808383    3.20007990290248

