59
CSD_code = OZAYOF | q = 0 | S = 0 | Stoichiometry = C26H22BrCl2N5ORuS | MND = 6
C         9.64392041950776    2.89894849721795    7.97922880686520
H         8.95219774754836    2.09812757481455    7.75687745127621
C        10.32875002490790    2.93202611446194    9.18066205877609
H        10.15522977751609    2.16788736814675    9.92061858442147
C        11.22509282280162    3.96574888375922    9.40873442762041
H        11.75230375622168    4.04454172191329   10.34661406269282
C        11.46580965616112    4.87139467709381    8.38986279029468
H        12.20442932685433    5.64583098317643    8.51505302202907
C        10.75710529222967    4.76068061435254    7.19660925138686
C        11.08202717921571    5.51826606075671    5.98024573184189
C        11.95304492927036    6.60342449598974    5.95068284867177
H        12.32434032194628    7.02820184157498    6.86868392550873
C        12.30791364153518    7.15492958143600    4.73135295860899
H        12.96196665159680    8.01246933483068    4.68999551004144
C        11.81675594683107    6.57753021098507    3.57283237113270
H        12.08474500207502    6.95264255437809    2.59858987849998
C        10.93877675420699    5.50947197596082    3.68286446490575
H        10.52690750193842    5.04168479740650    2.79951670189936
C         6.65076109749428    3.10078271974455    7.21352723764499
C         5.95359516435417    1.91784168433320    7.46231827031811
H         5.68856575614999    1.28145547542968    6.63210923347317
C         5.63940627795001    1.55896746840655    8.75785668258264
H         5.11880065035632    0.63551214315374    8.95932903968425
C         5.99835515868443    2.40039746165935    9.79903054745655
C         6.65061658240022    3.60075573560514    9.56483218656510
H         6.89474409231252    4.25647660503226   10.38627473035423
C         6.98203644383302    3.95011236352546    8.27119545092090
H         7.46323886481105    4.89537305189412    8.06211252592520
N         6.04145270542320    3.35765951956150    5.05765015354042
C         5.40408056897584    3.66997937332306    2.72870775760946
C         3.98880305013278    3.58190019766179    3.21940176164797
H         3.30952512556145    3.47562744939879    2.37810468237898
H         3.75304294919795    4.48643901549505    3.77637486751256
H         3.89198388777340    2.74302391595069    3.90282746347079
C         8.12148943541045    4.52904508628373    2.41160618955385
C         8.94754097597539    3.67856230139408    1.68541080829331
H         9.18431347137980    2.70914668781973    2.09974461151587
C         9.44451426738597    4.07607601282639    0.45627406333301
H        10.07506351182653    3.40617356532979   -0.10760920466907
C         9.12917750381927    5.32818317567271   -0.04127152907767
H         9.51679553617171    5.64678734231315   -0.99734032216606
C         8.31087784663274    6.18353717860586    0.67702246150110
H         8.07988875638418    7.15672301156821    0.27460660308531
C         7.78800441974590    5.79217031058377    1.89940645607466
C         6.06439873575903    7.98129608037058    1.66746827890527
H         5.23182444914238    8.47350188283925    2.16051662409885
H         5.71457152458042    7.43927611814728    0.79438048411016
H         6.81799634255544    8.71763031152151    1.40329005071900
N         9.80761146171724    3.81911855021449    7.03545183708503
N        10.55598083529297    5.01041540337140    4.84575521432549
N         7.01140713126255    3.44181979654248    5.90826080451202
C         6.41478135728483    3.72513755300633    3.82173474801337
N         7.65896392427600    4.12993851799466    3.66948254778033
O         5.71138873373331    3.71018139715332    1.55958827351268
S         6.71962880664477    6.79971817460516    2.88189297028853
Cl        9.65228003019180    1.97338752328746    4.73974574805308
Cl        8.20672679336575    6.25114496359686    6.03136740556664
Ru        8.73428315313180    4.03439190608529    5.34228225596626
Br        5.58746586850244    1.89922568042212   11.58745518208243

