27
CSD_code = OZEDOO | q = 0 | S = 0 | Stoichiometry = C9H8I2N4O3W | MND = 7
W         9.48814697582132    4.29970028653254    3.42254183593330
I         9.39718731930906    7.08420669461618    3.99492538236623
I         8.81799046124201    1.74041908874488    2.41260912810847
N         8.70127960908838    4.98308096490523    1.47338956040361
N         7.76349243942401    5.91297864241859    1.24780463963185
H         7.36078297016903    6.44189322205962    2.01392841937383
N         7.35466132476591    4.44307387286444    4.03075432101773
N         7.01261724332396    4.80790466358067    5.27312706167622
H         7.70281070021762    5.16321813191146    5.92447834303574
C         9.71046689754879    3.34646860826513    5.15059937868158
O         9.58197829484372    2.81439971070740    6.19385837624403
C        10.94949961026849    4.37905594137283    4.77050716982912
O        11.90806058766464    4.52135829141040    5.44147297368378
C        11.32316870872345    4.04956212319739    2.69234096816558
O        12.41495561275812    3.91184313044264    2.35069088576375
C         7.57776944787181    6.11749707105612   -0.06377023896831
H         6.87096691109476    6.83301804853878   -0.43143218896235
C         8.42961086809004    5.26387464162343   -0.72879735933274
H         8.54845555063019    5.14728352843452   -1.78491609217562
C         9.11262250183881    4.57783049849420    0.27572907957504
H         9.85987005434176    3.81195920714150    0.16458249943253
C         5.69433040348665    4.67156077273777    5.48469354572969
H         5.24196363628973    4.91477361325891    6.42393926367732
C         5.14906410437071    4.19109172543152    4.31622660441318
H         4.12504131052842    3.95646888089909    4.11808607932997
C         6.22681880793385    4.06355658224089    3.43782123168919
H         6.21668764835419    3.69952205711552    2.42580913167598

