39
CSD_code = OZEFAC | q = 0 | S = 0 | Stoichiometry = C17H12I2N4O3W | MND = 7
C         7.65895059358958    6.11145396362272    0.53974232269897
H         8.20145054385846    5.59829000218568   -0.23286017855923
C         6.81969629309969    7.23868649996324    0.41147835429371
C         6.39070144741365    8.04629167637077   -0.64877262991636
H         6.72415580633252    7.85212346642902   -1.65587270112918
C         5.54070022876587    9.08304311006841   -0.35673196642921
H         5.19089177774842    9.72600143377862   -1.14954403819841
C         5.10693100324900    9.33535078907994    0.95486866947627
H         4.43578333676136   10.16213025914627    1.12912264830200
C         5.51210857643019    8.56102643250907    2.01636468748260
H         5.17888369319922    8.75290538460622    3.02342196123962
C         6.37649305887806    7.50784546848179    1.72996558832510
C         9.02231552840119    2.99916401406291   -0.09026777479056
H         9.79725327938851    3.70398984036944   -0.33855454439977
C         8.53545706341089    1.93528058856210   -0.87510667161375
C         8.79952807388123    1.43795103148019   -2.15846497356000
H         9.53191784439532    1.91392864829540   -2.79097437231349
C         8.10268848098427    0.33044335990690   -2.56700202924121
H         8.28334238471057   -0.08282932504088   -3.54734899612133
C         7.15355824066260   -0.29397506481343   -1.73827294344155
H         6.63658876042268   -1.16526572065389   -2.10971491472358
C         6.87069851526496    0.17091098460685   -0.47736688038300
H         6.14583792074055   -0.30758112048802    0.16079082254059
C         7.57447775040838    1.29645194853679   -0.05151645547352
C         9.54397934596403    4.82239336360962    4.67872082354086
C        10.68499873308614    4.81543935436440    1.91240730044378
C         9.76490621271491    5.95282770231087    3.48341813721605
I         6.58100161820064    3.50482065945664    4.00319509172405
I        10.30443558222183    1.82683358258495    3.50356683771705
N         7.72082043608603    5.72855065354884    1.80201420394252
N         6.95568611348411    6.57349935846431    2.52184025108301
H         6.81381984439519    6.43336468206531    3.51453645216977
N         8.41387904273834    3.01946952757379    1.08549366536986
N         7.54059504672601    1.99384640522471    1.10483400618513
H         6.99103814816483    1.79532212159370    1.93639980468869
O         9.73660573939415    5.03368222231043    5.81748275490692
O        11.63560611207266    5.28288331073102    1.45141820492395
O        10.18379234110867    7.04792764896585    3.65895646595958
W         9.02482548167612    4.23622173614545    2.83463301607301

