89
CSD_code = OZEGAD | q = 0 | S = 0 | Stoichiometry = C41H40CuNO2P2S2 | MND = 4
Cu        7.31121206429820   14.03152237187800   10.62238034833095
S         5.73686504242051   14.30081238154366   12.32125883927436
S         6.10415341702075   15.96294121609037    9.93302937043850
P         9.15412990697667   15.05583760654145   11.44136732075841
P         7.42400507180863   12.23281298097122    9.37224486721448
O         5.33672491790890   19.49833340180999   12.51034949857594
H         6.18156064633536   19.93399627184628   12.66930196804553
O         4.42926478281191   18.06689079204253   14.75400031786960
H         4.71038879108992   18.60806025658731   13.99489515583817
N         4.48666571414477   16.59097932498665   11.91786670292296
C         5.37125168283899   15.69917872636598   11.44020098245885
C         4.23766818034064   17.81383900275522   11.18743563335023
H         3.33892614731628   18.28449971894207   11.58751930905471
H         4.08192527563172   17.56676430220616   10.13184634088000
C         5.39501268556649   18.81323119162252   11.27409622432311
H         6.34604821943716   18.28192288476918   11.16930459074924
H         5.30473906682471   19.52993170368902   10.44726549404523
C         3.77157703006997   16.32275198037755   13.14769088903445
H         3.56494861329196   15.24948466682198   13.18730129212176
H         2.82617520046987   16.86904713785579   13.12943068993772
C         4.55640504962349   16.71538683303230   14.41080867011189
H         4.16419119930766   16.15087586297715   15.26043713207353
H         5.60905790487713   16.43745660876755   14.26694906815257
C         8.93428200401446   16.67960757847216   12.22438105886864
C         8.34093970209694   16.69732534007597   13.48706975420379
H         8.10472524455818   15.75798586270619   13.97168507732592
C         8.06015441415784   17.90028642559218   14.10516536214067
H         7.60370366943128   17.91518929916038   15.08382544981369
C         8.35542515024355   19.09359611406478   13.46153782363040
H         8.15224514701893   20.03384003814539   13.95557115756706
C         8.91679737126612   19.07912688662921   12.19387954309131
H         9.13583402994933   20.00877705291544   11.68705622604496
C         9.20146461047038   17.87691060112410   11.56940296811894
H         9.63088446554024   17.86605588173020   10.57729035049490
C        10.37284465680437   15.38987307793544   10.13281376150115
C         9.84149128966308   15.74996996101494    8.89574022127323
H         8.76567358560028   15.81769534857890    8.78445461725389
C        10.67933744552395   16.01164362078712    7.82942109537829
H        10.26388252316719   16.29429261324110    6.87351286975063
C        12.05158944022917   15.90198966039223    7.98839900524189
H        12.70933363541012   16.10371169520502    7.15571270903191
C        12.58123209535069   15.52674710127789    9.21196724604657
H        13.65145393360553   15.43536131142023    9.33128745001011
C        11.74785622842491   15.26708794406954   10.28552155047843
H        12.16448139771830   14.96595371532340   11.23620961556469
C        10.09427047505297   14.14599640480088   12.70509254318221
C        11.01565890857476   14.74159862879645   13.56145720643184
H        11.19671689279048   15.80662396374312   13.50340199765962
C        11.68663740816643   13.96752600658729   14.49036790510927
H        12.40212626236297   14.42858695641030   15.15598209437694
C        11.44313246271497   12.60498353809554   14.57302013949656
H        11.97033115355576   12.00828469861788   15.30279992021906
C        10.51704907405123   12.01107652476624   13.73106024437805
H        10.31472471309805   10.95218147122060   13.80148481200586
C         9.84138153998934   12.78175457982956   12.80324721035906
H         9.09389467706504   12.33891678998268   12.15437302254722
C         7.70659532952462   10.69141173812871   10.29314925677638
C         8.54509855001812    9.66724871619814    9.86559642729779
H         9.08306279980717    9.76132665324033    8.93198396312847
C         8.69554708552655    8.53519053846292   10.64623175797758
H         9.34678685792179    7.73907003165636   10.31488047030951
C         8.01655323379562    8.41929434663113   11.84893172796977
H         8.14174992054154    7.53290751096985   12.45354584416843
C         7.18309182638927    9.43954574697380   12.27896954012320
H         6.65914690921695    9.35323642310744   13.21930543265490
C         7.02938669664635   10.57447657150987   11.50487349263892
H         6.39592376678559   11.38952751795083   11.83441783373897
C         6.08528062058877   11.78914503672475    8.22234105046543
C         5.93474177472940   10.51589666482375    7.68326151822730
H         6.63034859709387    9.73110468459716    7.94590765784871
C         4.88835594178443   10.26244197749662    6.81575321377680
H         4.76760569790948    9.27463209838495    6.39483001729112
C         3.99355408907948   11.26919582802120    6.48679065344180
H         3.17760588581505   11.06227385091437    5.80975010929130
C         4.13891266064994   12.53595588172871    7.02851856543007
H         3.43765336686719   13.31781286685119    6.77639556756026
C         5.18081338539631   12.79676827009380    7.89969313189423
H         5.30544571066570   13.77850367523636    8.34069062524179
C         8.88073195903612   12.36367976672992    8.30203234045710
C         8.77647016382045   12.63799138083033    6.94275271149237
H         7.80113864714306   12.68924960047605    6.47905610799165
C         9.91952073835225   12.84083483531855    6.19044659300210
H         9.83501340612668   13.04870775623812    5.13362479298751
C        11.16798942216850   12.77669188558506    6.78570302700347
H        12.05803415151007   12.93017447505434    6.19382027804206
C        11.27579349811557   12.52228435660960    8.14411826724804
H        12.24818036980754   12.48167799212729    8.61248543002576
C        10.13861375503007   12.33084481102693    8.90261962720751
H        10.21580096400920   12.14888259300373    9.96725025317587

