37
CSD_code = OZEKAG | q = 0 | S = 0 | Stoichiometry = C17H16AuClN2 | MND = 2
Au       -0.99265691445899    4.90248380003415    1.70077851737264
Cl       -0.99123881198473    7.14794807956778    1.69947132082001
C         3.28986555764557    1.32158922253329    1.17505154787327
H         3.44075521262774    0.74224778094912    2.07532855189766
C         4.10171956864399    1.10767977618629    0.07395061547726
H         4.88003683907611    0.36035473856171    0.11829114122158
C         3.91521557946183    1.84938040195306   -1.07936215318606
H         4.54805125092402    1.68174507793251   -1.93787791491857
C         2.91806438292694    2.81003838359099   -1.12890983693750
H         2.77227693157912    3.39406588616430   -2.02499304757515
C         2.10968127925992    3.02716098390841   -0.02838187865485
H         1.33489519624859    3.78067415551855   -0.05949669015396
C         2.29211332740013    2.28435771179680    1.13172869601750
C         1.37827900895147    2.51287835396347    2.31150352977596
H         1.73328735571349    1.95843913482021    3.18479915198925
H         1.33229725170654    3.57882419119521    2.55379205041186
N         0.03645156377285    2.08393323956160    1.99668103510505
C        -0.99316616768310    2.89637854491142    1.70140372171264
C        -0.34160022934684    0.77428407952976    1.88419615703460
H         0.33448791960392   -0.03516027122999    2.06534537227989
C        -5.27636226031642    1.32152664161327    2.22736552995670
H        -5.42708570705467    0.74230623068156    1.32698208882228
C        -6.08835487182452    1.10739114273605    3.32831998464533
H        -6.86661124783805    0.36001575898258    3.28375985540655
C        -5.90206512995997    1.84893446144313    4.48176957213524
H        -6.53501520004805    1.68113117194444    5.34016790203161
C        -4.90496922870167    2.80963383804648    4.53161290699330
H        -4.75934086045930    3.39351577404455    5.42781718320245
C        -4.09643813207388    3.02697455969841    3.43123448666796
H        -3.32167114001349    3.78049294038941    3.46257817893521
C        -4.27868328271436    2.28436018556368    2.27097564236558
C        -3.36467250713341    2.51312582533321    1.09138766532659
H        -3.71957616821461    1.95888455193460    0.21792095289204
H        -3.31858843999653    3.57911608874042    0.84931517668953
N        -2.02291919964141    2.08404385868481    1.40634057593210
C        -1.64510848667323    0.77435454616276    1.51918263641193
H        -2.32135423940398   -0.03501084744884    1.33826977402326

