103
CSD_code = OZEQER | q = 0 | S = 0 | Stoichiometry = C39H56BrN5OTi | MND = 4
Ti        1.41497228285125   16.22886831348483    9.85964897704628
Br        1.70349371146459   19.18425175570105    9.28854289498236
O         1.10697333409326   17.17157807609966   11.37186625850356
N         2.97149398337918   16.21178963088599    8.92445323896003
N         4.77519513776976   17.29490790925630   10.05710942962366
N         4.78363933942774   17.30125980704968    7.84177341204459
N         1.19245208768154   14.42364100508753   10.25709351099998
N         0.11243817586702   16.61808090989102    8.57964782016827
C         4.04748588883959   16.85807143643511    8.94024645536939
C         5.89168542129012   17.98855921085923    9.62963817142800
H         6.60048663083324   18.39063819755521   10.32485982184876
C         5.89277484656483   17.99553494099580    8.28549781580410
H         6.60765729041273   18.40166191798287    7.60024109295235
C         4.35627103282111   17.17985305155834    6.50554633886882
C         4.16510893983272   15.90882888659575    5.95406156413738
C         3.72177716271928   15.80870830980812    4.64355480823441
H         3.56878922670280   14.82730780877334    4.21696139671118
C         3.47643564661251   16.93227785804202    3.87025973638499
C         3.67246141005522   18.18234514664044    4.43973205903045
H         3.47138541881862   19.06754754159774    3.85300744098258
C         4.09911127200522   18.32923794536821    5.75000667189088
C         4.24829396811618   19.70117571115552    6.33580464900888
H         3.90941058121804   19.71877799432026    7.36978389186216
H         3.65712572913734   20.41477477930108    5.76830142122508
H         5.28751683226401   20.02760139399781    6.30817359063450
C         4.42347656881776   14.67561366538948    6.76087993461633
H         5.38143842981077   14.74481542362262    7.27510727742127
H         4.42274152154242   13.79259106496472    6.12676327666377
H         3.64253715519323   14.57612508743764    7.52120414102678
C         3.02394492990910   16.80783400308770    2.44645874171995
H         3.87329314511651   16.92438798196026    1.77240223448638
H         2.29704245206222   17.58016686403016    2.20456381101038
H         2.57761361946325   15.83345384517202    2.26420314762197
C         4.41376428378161   17.02359197121327   11.39018513659972
C         4.37858084495284   15.68868166282937   11.82306557700012
C         4.07609302040377   15.42328563110894   13.14978815758179
H         4.06819695269835   14.39752423776864   13.49298497756689
C         3.81196397850792   16.44241482890693   14.05507121634750
C         3.53840664026306   16.12722149602242   15.49521154690235
H         2.96752420337585   15.20610353084427   15.58871599090661
H         2.98857173704147   16.93378466582688   15.97309037916886
H         4.47954017880826   15.99373557040014   16.03019441378127
C         3.84869078585969   17.75235065155389   13.60415601973598
H         3.64297738970580   18.55845642834752   14.29494840615994
C         4.14438468715979   18.06564175104589   12.28388961929299
C         4.19930419139971   19.50890797966105   11.87555997316890
H         4.25674057183224   19.62421853179246   10.79724681365872
H         5.06945689065822   19.99085877134338   12.32306193957650
H         3.31156040081871   20.03005042180115   12.23046873074058
C         4.73830722404469   14.57442063486972   10.88678118522963
H         3.93206226317660   14.43001060994472   10.16015579709877
H         4.89772152110342   13.64948155666754   11.43661248642342
H         5.64668547837075   14.81819487420973   10.33518356776581
C         1.38886547119749   13.76613429786492   11.52273960115885
H         0.47837487757384   13.22366911366841   11.84189868209493
H         1.65025506706214   14.49796171813936   12.29085632461711
H         2.19912543086493   13.01572234309160   11.46728959270891
C         0.91219259663241   13.46471401732767    9.21893698520581
H         1.72165038296739   12.71444095552821    9.13360353438829
H         0.81406948695711   13.97590204225741    8.25658452400399
H        -0.02173506570483   12.90804346739047    9.42607819919481
C         0.35847671721225   16.72957241974545    7.16316134437101
H         0.01359128303308   15.83374611668906    6.61203809838678
H         1.42956996273423   16.85750361340802    6.98254995182818
H        -0.17754065957586   17.59705676492668    6.73714945780001
C        -1.29111750866997   16.45274370287330    8.84900068690505
H        -1.87556835502951   17.29371253477536    8.42952225954540
H        -1.47556702126978   16.42198583394988    9.92675645289804
H        -1.69450115260471   15.52403783758170    8.39878928049160
C         0.19986308148416   18.11794319062707   11.43351447887715
C        -0.85525724538384   18.16163874112771   12.38325672109622
C        -1.77085793667156   19.20235447319460   12.32711896458894
H        -2.57001733506062   19.20629774023439   13.04512827360741
C        -1.71738777299831   20.23565292480752   11.39897627121433
C        -0.66514182423872   20.22054376151126   10.49354475897375
H        -0.54230362543733   20.99571788852381    9.75445039606472
C         0.24889716876148   19.19346522712322   10.53328607848751
C        -0.98282995487684   17.05355534744866   13.42426490967698
C         0.33819314773637   16.92577766580850   14.19368713823429
H         1.16241884122045   16.70800721257735   13.51886829930576
H         0.26995553071985   16.12564824927787   14.92845474396310
H         0.55675013065916   17.85686240301219   14.71433772013178
C        -1.30677085518599   15.73704720711042   12.70345632398083
H        -2.28821904790884   15.80032380566393   12.23315505460562
H        -1.32148471083449   14.91290131609978   13.41511876317426
H        -0.56139831827856   15.52158319991558   11.93669549792776
C        -2.09077309875485   17.31311561279314   14.45223267500776
H        -1.92516189263249   18.24830135472514   14.98259065020244
H        -2.08919349612389   16.50720020449560   15.18394527744212
H        -3.07333556445243   17.33437734823266   13.98620265591934
C        -2.74022386042301   21.35945232843082   11.33402450685497
C        -3.41075333945787   21.34046922898058    9.95300903929174
H        -3.90110313308469   20.38339004642891    9.78669372685577
H        -2.68457878252428   21.49391360752832    9.15988958172666
H        -4.15909396349248   22.12762957503426    9.88755260765518
C        -2.02677872537021   22.70206772110197   11.54526091993616
H        -2.74526233615161   23.51841674444595   11.50992245862204
H        -1.27591619527483   22.87512788426123   10.77977679732554
H        -1.53432666301386   22.71692156643211   12.51527520240302
C        -3.83369296383954   21.22676373341950   12.39747094191771
H        -4.38897244467051   20.29967102340741   12.27523335449101
H        -4.53515029515908   22.05299024672994   12.29941956533829
H        -3.41249045073641   21.26212135919723   13.39946370012212

