106
CSD_code = OZEQOB | q = 0 | S = 0 | Stoichiometry = C40H59N5OTi | MND = 4
Ti        3.15053250837492    1.93998557687166    4.16464337307639
O         4.21988327230480    0.67046135640095    4.76378341200139
N         4.12823645148373    3.45397804492848    3.84158032223844
N         4.43560766905099    5.48754619077314    2.65772913183792
N         4.51222720455903    5.59813562396699    4.86951879353643
N         1.69318312820952    2.64736433461465    5.12015010151329
N         2.31497930212456    1.31010829072326    2.62081278419651
C         4.31355035292381    4.69133594990041    3.80793072655169
C         4.68694485961707    6.79659398416552    3.01473983884170
H         4.84870548269324    7.55561041232962    2.27580841969166
C         4.73471374853686    6.86406226697155    4.35407983476365
H         4.95352071038042    7.69314581911752    4.99562933406165
C         4.32305940614388    5.36069754034378    6.24381724592760
C         3.32152478855707    6.05541527295563    6.93118664838388
C         3.18401524553697    5.85883421253602    8.29812582743588
H         2.41132364187930    6.39869701331846    8.82776549197495
C         3.99438944410871    4.97543609045524    8.99247459145331
C         4.96362537463471    4.27495068210452    8.28696296291528
H         5.59580130716300    3.57316426759054    8.81274633917712
C         5.14765186421107    4.45830626315573    6.92621671962225
C         6.19754100456573    3.69018203660360    6.18971607628240
H         5.70105740206664    2.95616536982672    5.54511052722809
H         6.86009152443245    3.17361686385930    6.87964926934064
H         6.78590474934281    4.34884640051563    5.55199359221318
C         3.82990445980754    4.75823918691404   10.46634521529166
H         3.04731154918406    5.39538831181706   10.86997662063601
H         4.76039865004625    4.97567616932612   10.98920339036246
H         3.57104956983774    3.71942258343683   10.66798969324602
C         2.37226258645745    6.97187296310205    6.21494942560830
H         1.44311018744716    7.05812238084423    6.77436744459778
H         2.14860318834390    6.59033722281446    5.22035950851540
H         2.79119870195958    7.97252290731444    6.10896145608952
C         4.18574235566516    5.04999589101716    1.34148859859155
C         5.10715880926586    4.21958973429103    0.70315431837377
C         4.84768700970626    3.81204042376885   -0.59633069266956
H         5.55534562594483    3.16643612127257   -1.09736885989688
C         3.70592414758097    4.22145176725473   -1.26919486489134
C         2.79880130413737    5.03990941981948   -0.60956397731736
H         1.89669912726094    5.34858268805297   -1.11899947699297
C         3.01368843108880    5.45266508730989    0.69555519867702
C         1.99393180904758    6.27369321475665    1.42743936017682
H         2.35376148400237    7.28735402598579    1.60090939406828
H         1.78421531135658    5.82085492883844    2.39749106241691
H         1.06958308410519    6.32957857916345    0.85877544607697
C         3.43072526399537    3.76275877947158   -2.66955377291619
H         2.96913559087369    4.55624574515007   -3.25342524132283
H         2.74410168320619    2.91574632686751   -2.65432210426688
H         4.34648759268995    3.44795033815920   -3.16376070092128
C         6.34181687958185    3.79418921847588    1.43209293232512
H         6.05181453203173    3.20955809017617    2.30669442499566
H         6.89875293420569    4.66463990798183    1.77895390243958
H         6.98621615374508    3.19767813539897    0.79155595801668
C         1.75481133382524    3.10657922203798    6.48425250114070
H         1.36152713868871    4.13501305633393    6.57529690159200
H         2.78660138855614    3.10716717352696    6.84214235859126
H         1.14447914475958    2.47603622232160    7.16009046921256
C         0.32883261133628    2.69769910845837    4.65606002437394
H        -0.33739936572481    2.06950642708723    5.28003148922888
H         0.26255266881735    2.35433383726172    3.62283962518498
H        -0.06915013097548    3.72888699674535    4.70591006174244
C         2.02748551370273    2.07497302051223    1.43582096638947
H         2.60898764573159    1.71497161532316    0.56534589774961
H         2.27935532297702    3.12338645606677    1.60995671609502
H         0.95909837429756    2.01001701944564    1.15757480389560
C         1.92391355661605   -0.06883985297947    2.46017318185710
H         0.82299628833619   -0.17817102167133    2.43300558014230
H         2.31188903278283   -0.67917665740579    3.28155197263209
H         2.30862232671209   -0.48694567705804    1.51215437364583
C         4.59903535986159   -0.59879595457775    4.88488822127492
C         4.05667545548689   -1.41080179484367    5.91621326114013
C         4.38063768286402   -2.75709937217259    5.95595978113797
H         3.95925708069119   -3.39345807629864    6.71655699581667
C         5.23943329529098   -3.33532101606000    5.03828717046029
C         5.83228875847271   -2.51732067424485    4.09214434640009
H         6.52974995881991   -2.97468869782110    3.41031111248265
C         5.56001628715987   -1.16159020707858    4.00181165264471
C         6.31954789451583   -0.29923572695267    2.99260706158830
C         7.00150524631421    0.85114823209728    3.74564046639879
H         6.24944091279127    1.52274582024046    4.15589320997686
H         7.64639936762525    1.41510752747419    3.07435704495139
H         7.60919976102585    0.45930851681998    4.55984701452684
C         5.36152644530315    0.26081270735673    1.93288067234511
H         4.83337177623816   -0.55852197168742    1.44632672579370
H         5.92325109719306    0.80260149356390    1.17354621382425
H         4.63140719703460    0.94318669261384    2.38452721219260
C         7.42024508136645   -1.07640477985288    2.25610857351916
H         8.13544386660360   -1.50650073946104    2.95343762870893
H         7.95964168224164   -0.39117925191832    1.60419347912912
H         7.00506618466126   -1.86589883568591    1.63401091450554
C         3.12016289532331   -0.81677835174683    6.96782062808910
C         1.79613450405324   -0.42653572086854    6.29465694477453
H         1.09066218197479   -0.06151284696142    7.04115118515454
H         1.35822280648755   -1.30037864050059    5.81118549190170
H         1.95403420970445    0.35831828175426    5.54365579927805
C         3.78758948698337    0.40307957714158    7.62292301604571
H         4.03892210398152    1.16292988719361    6.88042008693725
H         4.70283987118072    0.09267204746025    8.12555114085689
H         3.12116732478289    0.84633498981727    8.36164768517931
C         2.78767661526004   -1.80024959079050    8.09945710191783
H         3.69021393741953   -2.15754113395287    8.58992893916330
H         2.21804773356802   -2.65166246857008    7.73475751714452
H         2.17923141185671   -1.29037644706124    8.84479347260314
C         5.56484506611314   -4.79918137629282    5.10377169782618
H         6.42447211770288   -4.96734136463315    5.75452434252764
H         5.81051213461861   -5.18590738658978    4.11702402125076
H         4.72612389248485   -5.36514030561374    5.50366022410257

