86
CSD_code = OZESET | q = 1 | S = 0 | Stoichiometry = C43H34CuN6P2(1+) | MND = 4
Cu        0.01282125586140    9.96309487227124   18.74123900300358
P         0.74126360677956    9.51651490631699   16.58148077969588
P        -2.21962263686953   10.09421103721689   18.71079439398849
N         1.24322479109400    7.44667165030799   14.80240499951181
N        -0.71994450021203    7.26956072980456   15.80608026185372
N        -2.49473376936492    8.78778241062297   16.24761591489276
N        -3.45963221654134   10.77317233669116   16.34134407779877
N         1.52008624934411   11.33682788099973   19.08145742433653
N         1.21301456443617    8.76393422685706   19.84580041809085
C         2.54408292091687    9.62521613865355   16.47515920212047
C         3.29705757142937    8.55835940045463   16.96057320056027
H         2.79867162574714    7.64324124730824   17.25238929197932
C         4.67125325746471    8.66475973516987   17.04473610037302
H         5.25516690187942    7.83099791126461   17.40521350311078
C         5.30011200063897    9.84135601409245   16.66795901736751
H         6.37434316446379    9.92252538967811   16.73405785342887
C         4.55245413459961   10.90961513557100   16.20117722592289
H         5.04330071088297   11.82425086616952   15.90328672096839
C         3.17574845616062   10.80905592339339   16.11022264355428
H         2.58997160807484   11.64354812754188   15.74820706729377
C         0.14870207763320   10.75422782863658   15.38773523983663
C        -0.60334421764480   11.82517664069339   15.85768855150046
H        -0.81921726632452   11.90385824816995   16.91814395421172
C        -1.09014399142943   12.76777940185475   14.97049308508404
H        -1.68552385338006   13.59053629501933   15.33539925575426
C        -0.82390058941364   12.64055748894168   13.61712694944313
H        -1.20850650837008   13.37189075010535   12.92269732895140
C        -0.06771836042401   11.57584088452113   13.14833459325273
H         0.13835138130963   11.48335347427267   12.09263689979067
C         0.41965941002199   10.62746890077977   14.02751104310525
H         1.00984331738852    9.79181417300633   13.67655013247754
C         0.43374469107321    7.99346080376965   15.67498411940954
C         0.60932493380154    6.34532149570951   14.33875095508800
H         1.06762314972568    5.71642892612679   13.60280783585590
C        -0.61149448082539    6.21843333391516   14.93975931495572
H        -1.38507987480404    5.48613258760983   14.83250655240332
C        -1.82087112118199    7.58834826033778   16.66585472450724
H        -1.45541110679020    7.76220522144908   17.69227623290489
H        -2.51681868687711    6.73831553947848   16.67023159553131
C        -3.00450805662720    9.04956429107298   15.00622414948752
H        -2.90915230880722    8.35835815865892   14.19424316202648
C        -3.59036488282395   10.28066549030856   15.08855791637069
H        -4.09713801989248   10.83881923235174   14.32813647131444
C        -2.81311569210729    9.86510199319157   17.02955602690214
C        -3.20030854330409    8.88314590071261   19.65512910239242
C        -4.39078788156165    8.33756433856380   19.18567482870300
H        -4.76997919753076    8.61864672695051   18.21247453962501
C        -5.08785874818185    7.43869949339626   19.97311754930080
H        -6.01461440977095    7.01763206327796   19.61331441880001
C        -4.60321715600886    7.08173508058758   21.22156865095820
H        -5.15337165621020    6.38157250618011   21.83120665090704
C        -3.41485880774169    7.62124955528192   21.68914180154061
H        -3.03952238406013    7.34177214080660   22.66209770758521
C        -2.71178340643090    8.51817398930035   20.90677697804582
H        -1.78061427720170    8.95070964918365   21.25218224496635
C        -2.97049178457447   11.67459504571055   19.17443291524150
C        -4.31789358116012   11.95128781397307   18.96908645881670
H        -4.95430239228355   11.22047789128943   18.49557748356667
C        -4.82394848592764   13.17540547577025   19.36316951084723
H        -5.86718226702720   13.40072117903647   19.20150594340193
C        -3.99994023478710   14.11345461786623   19.96723600243926
H        -4.40458238551921   15.06626463649779   20.27317081915566
C        -2.66114195352297   13.83125076318932   20.18401633908316
H        -2.02335065921813   14.56080759293282   20.66079904931605
C        -2.14458269708379   12.61044237009001   19.78919816861682
H        -1.10159745691760   12.36450079752044   19.95564625646289
C         1.65852996380255   12.57895563130641   18.67097023641193
H         0.76470920952825   13.07446535204723   18.31687218102662
C         2.88230695992512   13.25059984019615   18.68599043897711
H         2.93667026961605   14.26911221039256   18.33701367138463
C         3.99759316650826   12.59675061882084   19.15408061473861
H         4.95966984390509   13.08560530417706   19.18616316675546
C         3.87810557331117   11.27076341837839   19.60096093189119
C         4.97671145836543   10.51607462356657   20.10254069978000
H         5.94397992011276   10.99332239226611   20.14349981448552
C         4.81527488078177    9.23721078419109   20.51805044596182
H         5.64995525198623    8.66963310365059   20.90063712146869
C         3.54301014053119    8.60007299875179   20.45441331863222
C         3.32821453730637    7.27003806769354   20.85053672634594
H         4.15127423712953    6.68922997402499   21.23917812135119
C         2.06863079718644    6.72773688707081   20.73550003377812
H         1.86922370781815    5.71122923185683   21.03399177855629
C         1.03731155005802    7.51497768604749   20.22196829817800
H         0.03502494233087    7.11903098638609   20.12184890458520
C         2.43374292708516    9.31741134244301   19.95701580646274
C         2.60031138870023   10.67621455826240   19.53673907941550

