67
CSD_code = OZETOD | q = 1 | S = 0 | Stoichiometry = C29H29BrI2N5Pt(1+) | MND = 6
Pt        8.46127219472273    4.96858956128869   15.65577691060222
Br        8.53951292206163    5.48974473416061   18.06869120170703
I         5.80044933789716    5.50684916897979   15.50029759537993
I        11.11414607157830    4.40146617956284   15.58479429966051
N         9.20255510804437    8.06909421385217   15.13126174020278
N         8.83303406288536    6.74088007122817   13.46537944888673
N         7.95423787058995    2.45003549628562   14.43866840180386
N         7.77731649157022    1.93559434190751   16.53133103557752
C         8.02195895462568    2.95260113701872   15.72076511540285
C         7.56144157930762    0.79008312345315   15.80238535985235
H         7.35921019178753   -0.14667897062722   16.28012956107712
C         7.67089519214321    1.10362168793881   14.49277069417696
H         7.57424641169417    0.49229777112457   13.62062966593296
N         8.38626993774298    4.53782424435859   13.69118557899432
C         8.12881809236177    3.28124224423055   13.34043070312037
C         8.05220505130270    2.95153235810265   11.99315794976804
H         7.84806483780955    1.94455378848159   11.67244702047485
C         8.24570087364095    3.97213285021446   11.06977852531558
H         8.18905901286712    3.74504153772297   10.01701297363913
C         8.50795729868593    5.27801126164759   11.46662224163018
H         8.65235867294177    6.06000924416070   10.74126069971179
C         8.57443703609462    5.53373514657054   12.83041862548352
C         8.87979680507016    6.81873538857739   14.84130430180451
C         9.12271280277882    7.97610035198870   12.93014259099963
H         9.14106073060305    8.16608071412330   11.87791696249806
C         9.35336633261925    8.79925658088642   13.97610688819342
H         9.60247372071589    9.84022593366864   14.00122832081294
C         7.68310335874756    2.01094231485758   17.95762340560199
C         6.40940256326171    2.12672874564078   18.52315442354087
C         6.31892180343110    2.25477584823490   19.89740783215343
H         5.34425554533550    2.36075048259428   20.34884390464282
C         7.44968705532304    2.25562962124644   20.70653739074018
C         8.69047691155547    2.09008822027984   20.11353689537117
H         9.57796352366133    2.06576132859018   20.72719807387739
C         8.83395704231508    1.96028654597045   18.73830679915094
C         5.17800758314657    2.10666272948665   17.67082770507730
H         4.29137740700558    2.18397495083910   18.29227197402818
H         5.11182183832914    1.18349082292634   17.09470101963567
H         5.16826490173264    2.94132787884997   16.97221726525803
C         7.32231807291385    2.44141799490647   22.18300671947613
H         8.18426146664316    2.03532876173827   22.70487960312656
H         6.41983726781405    1.96615290731341   22.55901264870675
H         7.25973289528619    3.50575023518232   22.40905614420280
C        10.20130550584390    1.76788575185156   18.16252548973381
H        10.72391453719291    0.98541180024378   18.70877893432081
H        10.78037240705948    2.68317279639456   18.27584934704395
H        10.18298324808574    1.49521411044831   17.10987106496189
C         9.44746409233930    8.58920990290811   16.44173323655664
C        10.77801864796594    8.71941642710046   16.85211546773481
C        11.01959759965382    9.18363952623597   18.13263621957790
H        12.04068942421650    9.27687196148196   18.46995789255438
C         9.98244871383609    9.52767090015692   18.99244704849049
C         8.67894892069984    9.42277726253620   18.53571959464598
H         7.86147779427439    9.70151574259917   19.18278244111190
C         8.38444702168513    8.95904667574053   17.26038695432100
C        11.91290349876701    8.38577415208404   15.93257797067825
H        12.85054246180063    8.38786543766698   16.47973411395310
H        11.98846872611077    9.12016060986725   15.12985710207343
H        11.79108007299940    7.40358474944305   15.48039967558667
C        10.27601347932877    9.99059772641836   20.38185041484968
H         9.43861882776323   10.54561528237121   20.79499007809411
H        11.16488363321380   10.61628779277043   20.40347395679199
H        10.45939780684839    9.12704220433931   21.02076590453230
C         6.95647615356465    8.87769859933636   16.82334081828915
H         6.42840516725241    9.78318044875313   17.11336130488602
H         6.46753065615459    8.04375261371725   17.32534940542072
H         6.85086477269929    8.74937797597634   15.74841934648557

