84
CSD_code = OZEXIB | q = 0 | S = 0 | Stoichiometry = C25H54Cl2P2Ru | MND = 5
Ru        9.44548731899367    9.77184291965847   13.73272320969420
Cl       11.12671376213891   11.26518506040442   12.97887451161217
Cl        7.53360075343483    8.42714949105426   14.10164827277448
P        10.21038075367661    8.09315815557559   12.22168608612078
P         8.23290186914007   11.67145946473115   14.52035387295903
C        10.40601041045952    9.22956228081913   15.32539101650828
C        11.90334406435360    9.23342854665580   15.35338513632864
H        12.24072936355201   10.17756560999934   15.79722974670378
H        12.27845700363793    9.24361575669394   14.32764875089528
C        12.53795590989354    8.06972885100677   16.11984057576627
H        12.33985291403525    8.14060040952355   17.18349396337439
H        13.61547744852714    8.07587734991680   15.96918590740196
H        12.14256198770972    7.11869308983180   15.77156278044665
C         9.67849744910940    8.77980339968141   16.46880078331494
H         8.79256800335010    8.20201600509002   16.20493555865904
C         9.86373312480768    8.95784122425639   17.79431627165894
C         8.95666822819026    8.27639719702915   18.77360389033028
H         8.24262710678812    7.63001797361973   18.27177963800553
H         8.40850130072779    9.01015833637369   19.36470928418928
H         9.54615095820212    7.67645967075823   19.46745102247655
C        10.85520784857227    9.87782816878048   18.43553646390405
H        11.42902612165139   10.44449689482610   17.71186737952259
H        11.54086099950971    9.31641311394788   19.07148746141660
H        10.32793643891744   10.58063933006644   19.08239471933388
C         9.68620982267961    6.32704958923236   12.54816925665988
H         8.59380182895097    6.42465968351221   12.58708184667888
C        10.04772598957905    5.31045971920797   11.47121028550706
H        11.11759224211399    5.12033184687772   11.44782796131482
H         9.72963100978406    5.63458644449123   10.48333060319249
H         9.54886193703026    4.36680341127212   11.69055893128150
C        10.12528258317282    5.85157460928793   13.93090214192130
H         9.51139118450135    5.00837417615986   14.24364354651344
H         9.99127970969786    6.65646786527372   14.65443249519689
H        11.16399779778027    5.53184478011222   13.93693740619362
C        12.01372098023637    8.12008991589084   11.67331191018170
H        12.29865861544196    9.16426565190971   11.86425068914442
C        12.30893798799206    7.81540357890782   10.20529283419092
H        13.38984486238756    7.82999046016393   10.06629808409540
H        11.88701741557611    8.55684553407471    9.53293533918058
H        11.95169833385837    6.82938087703318    9.91725871167449
C        12.89062747005378    7.22118387628351   12.54586657157961
H        12.83562284277947    6.18706867895901   12.21288674064357
H        12.59529430459774    7.26542131461775   13.58753652351454
H        13.93031531063557    7.53805601119624   12.47129264307156
C         9.32878797902153    8.42800794492112   10.60284514093057
H         9.82170096243370    7.84511901550082    9.81787933702472
C         7.84973796354854    8.04133547944535   10.63432628678772
H         7.37703499304861    8.33195692709869   11.57217539079156
H         7.71596434908673    6.96876240915891   10.51306384768631
H         7.32271989125202    8.53692670784147    9.81889764737414
C         9.49386403377266    9.91570736143415   10.30032461707962
H         9.03105008721403   10.17628570037449    9.34814633062503
H        10.54314161310723   10.20671942073838   10.26947490606868
H         9.01629927257647   10.50697792800733   11.08563619223292
C         7.27515984741890   12.39194577841252   13.08221898347388
H         6.57535130835768   13.13056422272916   13.48825491159978
C         6.47549105340896   11.26753141257941   12.42708224482580
H         5.86202480312553   11.65324938342324   11.61250019978520
H         5.82557503094941   10.76810730919327   13.14410113834177
H         7.14847115389861   10.51357951219681   12.01699483946140
C         8.18426419111626   13.08897473069363   12.06753952916126
H         9.11939188171178   12.54718646893037   11.92481327442825
H         8.43211964971996   14.09843840856792   12.38839491557441
H         7.68055766706234   13.15992093053068   11.10372244509430
C         9.22392189693137   13.16584320472032   15.05421971794844
H         9.77794513414182   13.40934274963509   14.13857374857247
C        10.26924652890291   12.79123670590197   16.10020754953858
H        11.01650413263074   13.57979190162015   16.17664517366284
H        10.76720289364368   11.87466236497006   15.78719250888232
H         9.82895200191760   12.64028029765791   17.08141361420057
C         8.42653164906577   14.39188415539670   15.48353501654049
H         7.93129499544033   14.22754791589549   16.43728848241395
H         7.68059032548316   14.67174460407085   14.74352960346649
H         9.10746066167889   15.23396837586393   15.60563481422858
C         6.85580696705193   11.35629670298971   15.75870548486823
H         6.54012570235580   10.33555737548793   15.50454805499086
C         7.41215296693718   11.32044223224510   17.18012446764568
H         7.56990613778090   12.32573500450745   17.56476106209321
H         8.35161772668012   10.77591300224138   17.19975028054253
H         6.70687674537398   10.81627855700928   17.83971082971072
C         5.62597342278247   12.26089758338732   15.70896475664200
H         4.95681475846932   11.96940641516213   16.51841734082501
H         5.07300397454857   12.15814965052302   14.77947020150136
H         5.88310027812903   13.30702782417170   15.85238428823309

