72
CSD_code = OZEXUO | q = 0 | S = 0 | Stoichiometry = C18H40B10IrPS2 | MND = 8
Ir        8.21074707437605    8.29138568208687   10.31149645168758
S        10.11003135342722    7.56328174963126   11.63137031135287
S         7.27241747639420    6.09772377931354   10.74739650773391
P         7.23214095710184    9.06061567810815   12.23997167182253
C        10.06301223623429    5.75624155789303   11.53671706637661
C         7.28036370761104    8.01202761730836   13.75448958348557
H         6.82515871461235    7.05917908643837   13.47296456291945
H         8.33853506368863    7.82478718584207   13.95339214710425
C         8.70798902836915    5.05662728518666   11.11169308458216
C         7.87624447526512   10.68877828726668   12.83025776067739
H         7.77358389225689   11.38706013813073   11.99763561594398
H         7.23975640013370   11.05036072489131   13.64159045472325
B         9.19934783565038    4.89423066160717   12.76230041055994
H         8.61824231359116    5.54429136995729   13.54268085520387
B         8.99380274573826    3.62330175850282   10.19942084307114
H         8.20847122035658    3.35863298069213    9.36512863149095
B        11.43528040683586    4.88348728443816   10.96630056124115
H        12.38370454844439    5.51515591951882   10.67610699607417
C         9.45142013344188    8.65116825014221    8.42871112143887
B        11.36557558775563    3.31644957073124   11.79416111942249
H        12.34511244760000    2.71654173903945   12.05072396177486
B        10.94381504946714    4.80983045907863   12.66478106600676
H        11.57820288406423    5.38776126599292   13.46755840010759
B        10.00410914162093    5.02941432056414    9.97753343372179
H         9.90767425565720    5.76896648270329    9.07929157502985
C         8.25154334353966    8.00562153912199    8.04648319656450
C         7.69080768130990   10.07147493011369    8.93291601343300
C         9.10549052587003    9.91439503908626    9.02242677164100
B         8.49736591059112    3.54577092596835   11.89661938286875
H         7.39625794024938    3.22674904972519   12.15478707510519
C         7.15322358404309    8.86657624926224    8.39615033202462
C         8.08321730484274    6.76410704087989    7.22998907522698
H         9.04215539478609    6.34371856924626    6.93832756951004
H         7.51943552588233    6.99914754085635    6.32603697973989
H         7.53090336099415    6.00136361610013    7.77980708258747
C         9.33111894751852   10.61889316251997   13.27157263555816
H         9.43689438485913   10.01542129059767   14.16890284458849
H         9.71487085017449   11.61549371003418   13.48169688673248
H         9.94033357789945   10.16695276892372   12.49247576944974
B         9.83134013203246    2.52413635628555   11.31226156415335
H         9.71180836778428    1.35660907604128   11.22389129416926
B         9.96452769760170    3.33082217780705   12.89767105607154
H         9.94433632537764    2.74840722889408   13.91974598984742
C         5.44076948813673    9.47569361555918   12.06586043078892
H         5.09767323109982    9.96924871542558   12.97832469615894
H         5.36430347003748   10.19932224682269   11.25251762252492
C        10.85925938009790    8.24865173167402    8.12586996137818
H        11.42957414416478    8.08958943229149    9.04172103629470
H        11.34961132107086    9.04150897799882    7.55934948979805
H        10.89611484748626    7.33308753614871    7.54126467581030
B        10.76904922598503    3.46021826236106   10.12112823865348
H        11.30953589159724    2.97735700321539    9.19364075504090
C         6.60254184207147    8.57133695270172   14.99902404957731
H         7.05308528295835    9.50937345769296   15.31290319815101
H         6.71351070683935    7.85941421235901   15.81457013974473
H         5.53927420504208    8.72964653338972   14.83847894864640
C         6.94706542164330   11.35593718094747    9.11181212362335
H         7.36014758578932   11.95800700148839    9.91875535029670
H         5.89037505172076   11.18575643061132    9.30604906253915
H         7.02522336149504   11.93958897177699    8.19179852967380
C        10.09480936806806   10.98043886448986    9.36982511719859
H        10.40624083375896   11.50895227887044    8.46576381010734
H        10.98091835445240   10.54874019156189    9.83052025115897
H         9.66862686176134   11.70842023663842   10.05662629022080
C         5.73765963227876    8.63081814853252    7.97614774972752
H         5.04243893927249    9.21684440803708    8.57330850365926
H         5.47673539964226    7.57931680792171    8.07721017816364
H         5.60761251765965    8.91291102940542    6.92873793909317
C         4.58948324783646    8.25219313982420   11.75744413046038
H         5.00212550023328    7.70960371057802   10.91009187293932
H         3.56816215621189    8.54555733553357   11.52185846137673
H         4.56340292655062    7.57310447962443   12.60526167437020

