111
CSD_code = OZIHOW | q = 0 | S = 0 | Stoichiometry = C39H59ClN10SiTi | MND = 5
Ti       12.26000627176924    8.82892092022251    3.87955016410822
Si       10.00197280831847   11.10673962943729    3.34124731395876
Cl       11.16081903175770    7.35682587897690    2.55266557598045
N        13.66552518647161   10.15160377428438    4.25942516920120
N        13.59695668371203   10.57794917346347    1.95252353303175
N        11.45162520488524   10.32401655562167    2.84785277195822
N        15.42011130771080   11.24263080259406    3.14698776739910
N        11.83853617649486   10.38738262020548    0.52840625160332
N        13.42489496635953    7.36534982602425    4.37543122983921
N        12.08600432805421    6.58224387522918    6.13980326185122
N        11.33449865147068    8.68349492471934    5.37730380711339
N        13.64451892908168    5.17840846228067    5.22454314026972
N        10.49413491374663    7.74478626708670    7.31134059665759
C        13.92520044212359   10.66752384081714    5.51808046682607
C        14.03616374138783    9.81532023420354    6.62377356588864
H        13.98110369858434    8.74448995210382    6.46983655726508
C        14.21125885071708   10.33768272520562    7.89102942174872
H        14.30428505066689    9.67030241807381    8.73626375727932
C        14.27441545209714   11.70817996945072    8.09003163674464
H        14.40634457542339   12.10802784522893    9.08391114594301
C        14.15816683168845   12.55937437461872    7.00329811491298
H        14.19429473973710   13.62955730636921    7.15032208939935
C        13.98973975140759   12.05098743617213    5.73098851372340
H        13.87994253530827   12.71334384951023    4.88304084861854
C        16.48850761002766   10.83126946725221    4.03283104422722
H        17.17522451546636   10.17911856984746    3.47148172095155
H        16.08721129553164   10.25584534805715    4.86637689132833
C        17.25401763326617   12.05244055187535    4.53593628401147
H        18.06781059714390   11.72583797966804    5.18468249614350
H        16.58132446201696   12.68035330193744    5.12222762494698
C        17.79894877596587   12.83879623456092    3.34682590944869
H        18.29843000945760   13.74644688094697    3.68992533609976
H        18.53423496976373   12.22940818274621    2.81592196182632
C        16.65542806596170   13.19191963323839    2.40039460803535
H        15.95843802764507   13.86069497488851    2.90871672137164
H        17.03653909672975   13.70420360559551    1.51568864832170
C        15.90998486737698   11.92805014375305    1.97217421903751
H        15.05564358041646   12.17529399895619    1.34295002868242
H        16.58392437665087   11.26970624206344    1.40638442515811
C        14.18747112510855   10.65446670280455    3.14246095823263
C        12.26395820512104   10.40285615113958    1.81469054377197
C        12.76351618750590   10.51722522608604   -0.57731993675088
H        13.71917744221549   10.85484627179099   -0.17953000200994
H        12.36253976509454   11.27453267712962   -1.26337392050572
C        12.92065079808716    9.19156329142380   -1.32050971197802
H        13.32985992687400    8.44543636394470   -0.63698129728862
H        13.61806101972628    9.31953518890687   -2.15049889405612
C        11.55741370494145    8.72818804245999   -1.82217342086374
H        11.64507993335240    7.76372829309847   -2.32517671237610
H        11.17108396485416    9.45194698644118   -2.54552457735188
C        10.60171528491379    8.61660626120201   -0.63963514047759
H         9.60028516357088    8.35068308464366   -0.98102069103991
H        10.94266624132828    7.83893879347510    0.04679154309458
C        10.52343400668979    9.93910005307462    0.12938218172218
H        10.06970228407639   10.71538568319952   -0.49967724008520
H         9.91211002381492    9.79546792473830    1.01831041997484
C         9.42881117604706   12.46343836901509    2.11335970495177
H        10.27182978641543   12.89126149468611    1.57987095382577
H         8.93578247798278   13.26695063316604    2.64882256912567
H         8.72790393464559   12.08509774627998    1.37759796755224
C         8.63819310447791    9.79300991178733    3.62878054664347
H         8.17432012124503    9.44929402832213    2.70759557813987
H         7.84899286953956   10.17214262416266    4.27054085969712
H         9.08556362207623    8.92588981862064    4.11799733944538
C        10.44423433483068   11.94877794985216    5.00741924490661
H        11.02477644862006   11.25373514150967    5.61363909317418
H         9.55871936940147   12.23408472364695    5.56697582364362
H        11.04220055185184   12.84494913480441    4.86372436791307
C        15.85245376685773    7.12750446375105    4.45032210340590
H        15.80302348517814    6.83651152681185    5.49025884959752
C        17.07005194204100    7.25755046007203    3.81294020940243
H        17.98086860325790    7.06739743517458    4.36274389775236
C        17.13433711343866    7.63717303877567    2.48075796947747
H        18.09138274911995    7.73875133158467    1.99040378993493
C        15.96152781470303    7.87226655923856    1.77855138018071
H        16.00247060628086    8.15425583677843    0.73569482643564
C        14.73628294388901    7.73863640807100    2.40093569786552
H        13.81244334901799    7.87378830700445    1.83974927373158
C        14.66017927625545    7.37405025329775    3.75525391374584
C        13.22134451376571    4.22474807155535    6.23507915041845
H        13.12262421297940    4.75650741019763    7.18099041201877
H        14.01840889828823    3.47822723619823    6.32280838853256
C        11.90453350576560    3.54573838423558    5.85892857475451
H        11.13172954962331    4.31360196418659    5.80407735745224
H        11.62767722904172    2.82317983148957    6.62876920676591
C        12.04930575612845    2.85926080756185    4.50338529175200
H        12.76935543416589    2.03918332794072    4.58435030337463
H        11.09261375884187    2.43677398846956    4.19098013051918
C        12.54298605359412    3.86427341789433    3.46641561555708
H        12.71529433584212    3.37183903225409    2.50767765306974
H        11.79556025714586    4.64843099844277    3.31784467781088
C        13.84239274499076    4.51764766625265    3.94394292761588
H        14.62191341723874    3.76037319522737    4.08446964015386
H        14.19126494840454    5.23135345747686    3.19822346526243
C        13.01553750816095    6.41331869070090    5.23494636419854
C        11.34331321940108    7.72761053507277    6.23448326662543
C         9.78118377892977    8.96370188404346    7.61299781964912
H         8.80640352263786    8.69215077122646    8.03442424156607
H         9.63658163280745    9.50823195531511    6.67755025709579
C        10.56967609920151    9.80822091068539    8.61728098827882
H        10.00579837777114   10.70756717741911    8.87047773879946
H        11.51048240524851   10.11157826501525    8.15192248920819
C        10.85411097995232    8.98610979925589    9.87341447087354
H         9.91084291288514    8.75271517773007   10.37474035862533
H        11.46850102278037    9.56343177329141   10.56782981866199
C        11.56179315367908    7.68393825931127    9.50256310785599
H        12.53622723262890    7.90975482781068    9.06543234826292
H        11.71441618856014    7.06637166271187   10.38974211756079
C        10.73377672316186    6.91702411039203    8.46742546190841
H        11.25154640834269    6.01753340280455    8.13769120270540
H         9.76394168121928    6.64105003856656    8.89711046957717

