53
CSD_code = OZILEQ | q = 0 | S = 0 | Stoichiometry = C22H18N12Ni | MND = 6
Ni        3.30818959878459    2.23714238350988    7.70165748683740
N         3.34069887415863    0.60896113177713    9.40393991651053
N         7.28336276559933    2.73805814447809    7.65546581816914
N         3.33310455820671    3.57910376195018    8.98378631209633
N         6.87727527627357    3.63972738748544    8.52683885969802
N         6.29120256188694    2.05023587506524    7.19473421912375
N         0.31305312269050    1.77995021118235    7.59417195206780
N         1.43804855936789    2.33603567839191    7.97621698533577
N        -0.21695887441733    3.19339089169664    9.13225925916563
N         3.28281616437807    0.86789373848491    6.39385451847273
N         3.27458765897398    3.86399729452186    5.99823113123075
N        -0.65666697921065    2.28996219531759    8.27924810875432
N         5.18445672887111    2.47954914868749    7.75295874049910
C         1.09481795863418    3.22598067079744    8.94830033205199
C         4.50115081563448    4.11735613123082    9.33124181443183
C         2.18243207161392    3.97309356199273    9.52741018215493
C         5.56305308046703    3.48385785909932    8.59130312449852
C         2.30011741881286   -0.12992435595813    4.46353274436124
H         1.52584506722151   -0.09646244840178    3.71372270150130
C         2.16134985805719    4.97322711698218   10.49344385816743
H         1.22380732270787    5.27935671599075   10.92747401372701
C         2.29229077493362   -0.20960408632643    9.47905353983213
H         1.74148385193345   -0.36918043915156    8.56031259424123
C         4.30816260377606    3.88044436766554    5.15776379634149
H         4.83293003100240    2.94247331029847    5.02442835991067
C         4.55972363268042    5.12674875337943   10.28603568455132
H         5.51098305444142    5.55568689333064   10.55473861791190
C         3.24314984697104   -1.14406892007854    4.47500338903511
H         3.22764557422606   -1.92540520497382    3.73001568346576
C         2.35514317968892    0.85359923606225    5.43660848464107
H         1.61767587389338    1.64388829778007    5.44952392812240
C         4.20665468869818   -1.12705398025051    5.46964155517482
H         4.96659951025752   -1.89023090038340    5.52338797056758
C         2.59914792924792    4.99882484704491    6.16085876853645
H         1.74209328386976    4.95973877986698    6.82231151909485
C         3.36978383084437    5.54589908932194   10.86376556519793
H         3.38434363555564    6.32648638590683   11.60998445437814
C         4.02957031279302    6.19965813468712    4.68191906421830
H         4.32942702449858    7.10824300658542    4.18089354687059
C         4.04715627310271    0.80324131212788   10.51459437816708
H         4.91481735004518    1.44613780545487   10.42842987704812
C         1.89257443333766   -0.82844405921164   10.65152529193890
H         1.02655032687187   -1.47127603146335   10.65499196085334
C         4.19113563649251   -0.10774507472808    6.40666146680531
H         4.94518930749455   -0.07261255410830    7.18046473740607
C         4.72410780074262    5.01720785641042    4.48531590400758
H         5.57691167907136    4.97353740812301    3.82648543418086
C         2.62046866325177   -0.59949006981892   11.80779110763004
H         2.33455465417754   -1.05877484087789   12.74255617672904
C         2.93607828485666    6.18593738934139    5.53207438706777
H         2.35376010146134    7.07699163146625    5.70789173600890
C         3.72877812229746    0.22805027426982   11.73358690801803
H         4.33666511876557    0.42709828797184   12.60239203318940

