43
CSD_code = OZIMOB | q = 0 | S = 0 | Stoichiometry = C17H13N11OZn | MND = 6
Zn        0.46544940999316    7.71321727410321    4.95643345607171
O         0.56222708117020    7.41528341231290    6.88049674158991
N         0.48326462116192    9.82207164040243    4.99965685193512
N        -0.23896517098321    7.43370146305383    0.95379740113553
N        -1.47396254896354    7.50985784431719    9.52676246355452
N         2.53785002190113    7.32385815025606    4.80611122729167
N        -0.44783949739538    7.40524916075266    7.70078269861115
N        -2.39222251518266    7.27486363632274    8.63005096571143
N         0.64628181689500    7.62045233818053    1.86876994384829
N        -1.59572225169034    7.15011992921173    5.08958731498952
N         0.08087940477368    7.45542247874127    3.05898299091054
N        -1.40794338942727    7.14627610283658    1.48085336768217
N        -0.30286607529141    7.58956839693465    8.99574130074347
C         4.61033952741531    6.83012729199914    5.87639830498247
H         5.13993900255379    6.63644546463843    6.79550845287941
C        -3.71738638084255    6.64308653937744    6.06901302385698
H        -4.28823765066994    6.53914542740542    6.97694311163295
C        -2.36631934614577    6.99142413536994    6.16768543242754
C        -2.13376966450512    6.95756935874317    3.87774242543023
C        -1.20904120690205    7.16295260605594    2.79381691020767
C         3.16784218693859    7.32486576764734    3.63256312645311
H         2.56050426267939    7.51607715783364    2.75708940359024
C        -1.76966540174667    7.20435584382552    7.45416445810422
C         0.20237956044617   11.88457661881743    6.16354241355451
H         0.00906553407490   12.38624948834315    7.09803070591274
C         5.26681294265478    6.82750159579846    4.65615741456280
H         6.32686217928960    6.62995959041867    4.59742045708880
C         0.68660449075310   10.50789418992301    3.87741928424990
H         0.88058586166492    9.92626294448134    2.98787382483412
C         0.25516393524067   10.50199411383406    6.11936812008713
H         0.12201312836053    9.91927136622084    7.01792910720889
C         3.24947456405365    7.08318296585209    5.90492807108462
H         2.69783639772615    7.09414984777437    6.83174450625304
C         0.40092223218563   12.59721889418058    4.99193531440980
H         0.36266751631028   13.67613273068179    4.98759196196918
C         4.52633494529521    7.08278913247790    3.51345279381460
H         4.98818604698862    7.09199625790246    2.53901665867837
C        -3.46437479522999    6.60430532512489    3.69461866034617
H        -3.83467110828641    6.46317332702533    2.69266045253242
C        -4.26540307934962    6.44819367167708    4.81636947466699
H        -5.30493130333536    6.17674021431591    4.71103116439244
C         0.65475990917912   11.89073543280893    3.82677145712345
H         0.82267480624038   12.39878087201975    2.89068678359229

