48
CSD_code = OZIQIY | q = 0 | S = 0 | Stoichiometry = C16H22BF2N4O2Rh | MND = 4
Rh       -1.28302416417272    8.13119473285262    1.81621407709885
B        -0.17952463432844    6.22780111480754    3.82382619939590
F         0.70025297932106    6.58836778231947    2.79527157243498
F         0.38678104597444    5.35588705749217    4.70713821118366
N        -1.45584559314726    5.63463290117284    3.17383069977648
N        -3.29724619657466    5.61686208483989    2.04596740905899
N        -0.65103125165408    7.52707100780409    4.52574131252263
N        -1.68393767190180    9.40951472672248    4.75529971860613
O         0.50219097566158   10.44839555804711    1.18775211421571
O        -0.81479882169273    7.33467757609683   -1.02935027423734
C        -2.20793874138965    6.36881014037883    2.33505876299551
C        -2.04441801581538    4.42944953758654    3.40108192469300
H        -1.59775466359783    3.69574294293984    4.03943473039275
C        -3.19734140396920    4.40822097453410    2.69243669536899
H        -3.92968805789253    3.63450355551419    2.61158141650724
C        -4.39820613476121    5.98009093666406    1.15195331970824
C        -4.01224178870358    5.59041480716353   -0.27849772681246
H        -3.14337775826600    6.15530967758724   -0.60270546161961
H        -4.83493970170048    5.79538436603001   -0.95816868432414
H        -3.77343641909949    4.53024580390255   -0.33114151508975
C        -5.67415380789424    5.23514468092300    1.56147923087085
H        -5.61931151695286    4.17766938495386    1.31690538926043
H        -6.52020426042021    5.65488623617285    1.02350373126446
H        -5.85868194933532    5.34433405221881    2.62798736606091
C        -4.66553624665471    7.48327588197048    1.24651931732853
H        -4.99236930402189    7.74067008124196    2.25110123546510
H        -5.44510574122345    7.76261280068052    0.54332740124226
H        -3.76095050180860    8.05446713704996    1.01349438551474
C        -1.30981758377154    8.48014635408053    3.84318666027932
C        -0.58933017890169    7.85094398711794    5.84552800057045
H        -0.09886920950576    7.22064756197048    6.55791955150787
C        -1.23007675882035    9.03349075018160    5.99680066504871
H        -1.38743222892761    9.61138105008460    6.88155508593339
C        -2.41029954885510   10.65257285694098    4.48958680677466
C        -3.18403296247142   11.08593944712433    5.74025996898770
H        -3.76795093185699   10.25881942373351    6.13818074036661
H        -3.86609783724874   11.89005953458916    5.47645930456594
H        -2.52001643858865   11.45762603166758    6.51615869536609
C        -1.39655425139563   11.73703495116735    4.11110495450716
H        -0.65603517629485   11.85520600212840    4.89940636814568
H        -1.90158914674546   12.68779127080853    3.96352257936310
H        -0.88207926546346   11.46950522167685    3.19304001937843
C        -3.41191337778048   10.43270776581272    3.35449417296757
H        -2.90606181102580   10.06597518145171    2.45528303784086
H        -3.90956740489134   11.36888544242172    3.11738809198777
H        -4.16157141619766    9.70480453181887    3.65534815898665
C        -0.24213088534535    9.62265658704545    1.46532446304877
C        -1.08723423987943    7.62896850851261    0.04401011548656

