48
CSD_code = OZIQEU | q = 0 | S = 0 | Stoichiometry = C16H24BN4O2Rh | MND = 4
Rh        0.11141176259241    5.07031263130863    9.09033461198698
C         1.03812219571487    6.81503748883355    8.56650571773580
C         0.93492885214906    8.73863958229860    7.49549601372943
H         0.51987947187539    9.48974043499955    6.85497202766622
C         2.09360323625511    8.73702632716715    8.19898949536916
H         2.84970362476960    9.48898496482447    8.27169019589555
C         3.23967691291780    7.14366979868655    9.75794153984191
C         3.45453773285406    5.63013543729745    9.69249651227942
H         2.52159363700380    5.09537518626575    9.91085626705777
H         4.20468672341313    5.33221131100553   10.42002956725125
H         3.79786534210307    5.34636690809435    8.70037315827216
C         2.86049876781812    7.57043624834112   11.18040211071629
H         2.65795744893517    8.63900661427147   11.21312532439747
H         3.67163718672829    7.34904066451215   11.86898920643170
H         1.97024914155472    7.04204429894138   11.50896162069869
C         4.54537783819607    7.83416282567687    9.34539748910238
H         4.73109354465270    7.70080549222328    8.28173935619579
H         5.37288797798059    7.39354506440911    9.89565365575333
H         4.52649870394596    8.89713791191910    9.57098143303664
C         0.12394368926247    4.74218174460105    7.07312744704044
C        -0.54660828347881    5.37407005429239    5.07094112517892
H        -1.01608006346075    6.00051570863566    4.34028836445736
C         0.09015650915162    4.18688332724294    4.92055748621191
H         0.26230504666549    3.61119694878527    4.03661041219662
C         1.21807811823963    2.55378398388024    6.45247084447790
C         2.02059242652251    2.10835127674276    5.22400875780373
H         2.68319637895628    1.29377354795749    5.50534435820427
H         2.62676593713134    2.92759905028367    4.84314834149658
H         1.37219569770144    1.74839526915878    4.42952327981758
C         0.17965157307804    1.48234734302895    6.80310322769722
H        -0.35571879709243    1.75667439263899    7.70744211359284
H         0.66658485593509    0.52401182855502    6.96314728642490
H        -0.54143718111062    1.37588944272513    5.99524453948810
C         2.19132243015913    2.75653223089983    7.61569558678852
H         1.66717985835678    3.14897624487972    8.49644720327212
H         2.97112229305610    3.45847579829846    7.32940637707001
H         2.65386146458377    1.80926577119813    7.87940448286833
C        -0.12180093075847    5.61615516265449   10.84508105340953
C        -1.00549676134806    3.62693784369395    9.40841796583824
O        -0.43903508580114    5.95978150071249   11.89354192668611
O        -1.82163680781786    2.85632767081470    9.64952378687091
N         0.30619891699656    7.55979704119747    7.73096167989164
N         2.15916801865455    7.53050182442437    8.85174991226715
N        -0.51514103384500    5.69660646860500    6.38831785400099
N         0.51840944084201    3.80608115036598    6.16861987613008
B        -0.98728230402442    7.02552934559228    7.04816729618283
H        -1.81524210243700    6.78533376366089    7.88806886694855
H        -1.33986340557960    7.78764507339902    6.20620324426659

