69
CSD_code = OZIREW | q = 0 | S = 0 | Stoichiometry = C24H36N2O6Ti | MND = 6
Ti       -3.27619410859208    7.76775500662544    9.68516023443635
O        -3.60722013867403    7.55229836303420   11.41756862782166
O        -1.57302041405803    8.44492261108983   16.44654154548444
O        -2.87777588755685    8.48568817571044    8.10282612337391
O        -4.41109853984370   12.39007214947030    4.54654434525024
O        -4.80436657479600    7.06027242454208    9.12623749304744
O        -2.05157000010633    6.50037195150990    9.56517991705092
N        -1.60599987936248    9.20808486002756   10.54671185395169
N        -4.32535273288719    9.88430607912595    9.96638850680495
C        -3.12864990226966    7.73079315728728   12.62250447337535
C        -1.82218557930180    8.23151995032862   12.82877706569763
C        -1.36026053273353    8.45068109913138   14.11225466289646
H        -0.36371846282143    8.83270632206438   14.27843987610366
C        -2.14957841196152    8.17908245353277   15.22868423370799
C        -3.42994237794738    7.67763145409911   15.03917748645323
H        -4.07035452130462    7.44972652532760   15.87689762950562
C        -3.90657587295630    7.46400190069533   13.75823308414881
H        -4.90332667735640    7.07207007722795   13.61172573171515
C        -0.93953490071358    8.47788268695506   11.63698039604051
H        -0.03836226292921    9.02681396772974   11.96427678755812
H        -0.63536487702414    7.50786775848364   11.22091566542405
C        -2.31538078507195    8.15972040601180   17.60357429780419
H        -1.67177599591000    8.42545493979345   18.44114369520699
H        -2.57072157995971    7.09655988919506   17.66812613443657
H        -3.23384938448578    8.75523142339748   17.65235866133972
C        -3.25254681468635    9.39018654315440    7.23549995512730
C        -4.32895562716488   10.26960956246271    7.49648626381290
C        -4.66572033982203   11.24274165216451    6.57498238392070
H        -5.48798388932361   11.91659884937076    6.76631910334318
C        -3.97494138510398   11.38269155137292    5.37296177422794
C        -2.91966337832588   10.52258757661527    5.10266099211487
H        -2.36068538342774   10.59513941175744    4.18272720195896
C        -2.56646468788275    9.55239310529682    6.02273242912000
H        -1.74542255055236    8.88178657779564    5.81079730086118
C        -5.13348642997325   10.10381755934911    8.75606346586081
H        -5.77385865869144   10.99459346136039    8.88828280626658
H        -5.77602615535572    9.21991617232778    8.64426749560957
C        -3.77810722356355   12.54128191158285    3.30252120184483
H        -4.29119186747686   13.36473555970495    2.80746655437575
H        -3.87062151693881   11.63805050745979    2.68990451487099
H        -2.71788983415732   12.79381448928933    3.41554331033873
C        -0.61280760279450    9.45745162574138    9.50736950000081
H        -0.26711147158470    8.50345628483022    9.10896442725746
H         0.24935599579307   10.01346135038870    9.91335133695825
H        -1.04530533439890   10.03299351944929    8.69097995423530
C        -5.23522501774189    9.87206810421814   11.10669500903988
H        -5.93016286398853    9.03847897449397   11.00373191030487
H        -5.81046291015195   10.81209162196156   11.16020234046354
H        -4.68805099362415    9.74802504091839   12.03962092206551
C        -2.17290506341209   10.46806598462323   11.02682566461197
H        -1.40301051997794   11.25780790426777   11.07034862262570
H        -2.54564464111457   10.31121878536926   12.04371837218090
C        -3.32052821473623   10.93474628005354   10.12697573629633
H        -3.76798090272402   11.84897074888939   10.55500639405678
H        -2.92895150663430   11.18755561619770    9.13723679304634
C        -5.55924316727214    6.11046729647286    9.78651428882476
H        -6.43977825150125    5.85874336581460    9.16339082783218
H        -5.92838996273362    6.52475512460471   10.74779252742695
C        -4.76764872721944    4.83249593698188   10.08701328955133
H        -5.35542702372592    4.15634342832629   10.70534937810445
H        -3.85091558615755    5.11552083273555   10.61091279047188
H        -4.50733492084180    4.32898551585551    9.15676336865374
C        -1.77489574069962    5.83139804353350    8.38581782306375
H        -1.25783456267263    6.51298696104803    7.68024614871388
H        -2.71609984576030    5.50560014878418    7.90279068005157
C        -0.88620626775739    4.60751129087132    8.64360123572855
H        -0.67816515870709    4.08581621683501    7.71269947050561
H        -1.38864109692672    3.92979820271582    9.33046650933192
H         0.05361750212674    4.92052567056345    9.09466939630734

