57
CSD_code = OZIVEA | q = 0 | S = 0 | Stoichiometry = C20H24Br2Cl2N6S2Zn | MND = 4
C         6.72089300851973    6.66458903989072   -4.42637617123999
C         8.06154303055831    6.39483883013899   -4.71902992857868
H         8.54059227072402    5.55420559092077   -4.24349496939378
C         8.76376709670085    7.18879962803456   -5.60037175747716
H         9.79856026168545    6.98094087476154   -5.82594678839900
C         8.12530227709331    8.26513474901502   -6.19943840231701
C         6.79770121470818    8.55505200018399   -5.92705313087150
H         6.31776967993949    9.39677883138091   -6.40220663291560
C         6.10207007849159    7.75522019706947   -5.04295983594455
H         5.06758063390703    7.97418652601693   -4.82461900168853
C         5.96556435850795    5.84686281053981   -3.50531771612261
H         4.92671114634699    6.12712632625137   -3.32180154702413
C         6.22555068525465    3.05145367773412   -1.45067461514146
C         8.24071805000882    1.66414694320369   -1.12650540275146
H         8.90592559361340    1.22231599825752   -1.87179240057047
H         7.54819948366838    0.90083135319783   -0.76765117109980
C         9.04590514955196    2.22629480328150    0.04134836981946
H         9.72317553498793    3.00702758728600   -0.29762410986629
H         9.62826129192493    1.43488799147005    0.50325722817044
H         8.37434709939366    2.64346381483045    0.78685651671482
C        -0.70310036310515    6.58453606062160    4.46427220267842
C        -0.14233589643029    7.65434101808830    5.16693728611060
H         0.91945574176915    7.83821072935670    5.09896684421103
C        -0.92996186132627    8.47848967079215    5.94510982382485
H        -0.49486770888673    9.30446072237714    6.48648838686043
C        -2.29163051037869    8.23296772850146    6.02451838219774
C        -2.87368468784435    7.17772469018215    5.33698961741758
H        -3.93628907802170    7.00432311452364    5.41264505373124
C        -2.07993649920160    6.35989930872552    4.56137425660793
H        -2.51389649361399    5.53483269437442    4.01980732683011
C         0.14969186605114    5.74158102403010    3.65882071555391
H         1.21576110751212    5.97614753196685    3.64500417017381
C         0.11363467769501    2.97915860507327    1.54388048278210
C        -1.86615441290712    1.66509864282002    0.87990325594333
H        -1.15449435267993    0.87196618307118    0.64409852730916
H        -2.66911724220497    1.25421680421490    1.49584290547576
C        -2.42993754981943    2.25697550589003   -0.40842174089385
H        -2.95953768421155    1.49099665308405   -0.96661032649361
H        -1.62028187903050    2.63840686495556   -1.02458735548257
H        -3.11833127697396    3.07022239814644   -0.18996453141512
N         6.48936296785053    4.83514752621795   -2.92616809178261
N         5.71887801492546    4.12855822078756   -2.07306904178198
H         4.73649075561546    4.42595952498191   -1.91094684469427
N         7.46605763759885    2.69124614564050   -1.77909630875445
H         7.93700306620427    3.33581397438658   -2.40412334744870
N        -0.31837701246055    4.76055507846930    2.98649038483208
N         0.55002471920152    4.03154847137052    2.25533635094063
H         1.55840160298539    4.28041665986825    2.27063196582853
N        -1.17473549417665    2.66019947662793    1.66295964794234
H        -1.71838322750146    3.31490707133980    2.21387265945392
S         5.32382208209382    2.15680628700562   -0.33455504328817
S         1.15977715434662    2.06432344176568    0.58132575079382
Cl        3.55032954852541    4.70993142535859    2.15025081781078
Cl        2.83507134368273    4.97357759172151   -1.44082097812344
Zn        3.24037670212331    3.50268784197024    0.25183115979796
Br        9.09143668011481    9.36198240215170   -7.41667075858680
Br       -3.38406038303668    9.36222533601462    7.09657786023038

