109
CSD_code = OZIWUR | q = 0 | S = 0 | Stoichiometry = C56H44Cl2N3OP2Re | MND = 6
Re       18.51595774289281   11.61041485131257   11.67666461960114
Cl       16.26846506679384   11.78815594200115   12.14822918943282
Cl       19.10769409241111   11.41580921519247   13.96047205217838
P        18.44334122205687   14.05422235379134   11.75430759289117
P        18.27524387091773    9.16811016681893   11.68858285274588
O        21.12348975748933   11.57574804228222    8.53929659386237
N        20.21341679588939   11.61047275573530   11.17965400441959
N        21.34835438116424   11.73217641341327   10.79803316475406
N        17.96297187792799   11.64456747900810    9.78926206348616
C        21.83684355984220   11.77137227906018    9.51237261654866
C        17.63775753986503   11.60509354945985    8.68086598769976
C        17.31747811884971   11.56748264886348    7.32494257542158
C        15.99379106808898   11.68522055870960    6.88883057057791
H        15.20502533050320   11.81254580978716    7.61469887647020
C        15.71601122073989   11.64802154672591    5.54080365760271
H        14.69578556700706   11.75654763149499    5.20286307065697
C        16.73771330216765   11.50257087407315    4.60002336165756
C        18.05596998726565   11.39317228491912    5.04929084905164
H        18.85146818184629   11.26440757638480    4.33020768140643
C        18.35318642627414   11.42063601095459    6.39313166325885
H        19.36867184537266   11.33757226226029    6.74999891434897
C        16.43135846003444   11.46837010195205    3.16437324218728
C        15.32436758476320   10.76657429729170    2.69082402013838
H        14.69925749277347   10.22623974310342    3.38691447080397
C        15.03873701050643   10.73147151154848    1.33898479445017
H        14.18214899443191   10.17615905796101    0.98553448749177
C        15.84912265360867   11.40206008815472    0.43799458450185
H        15.62405732460715   11.37607215184968   -0.61777593071414
C        16.94988843250375   12.10586628160389    0.89758252180539
H        17.58220582481231   12.63498139314589    0.19956918494806
C        17.24164951912035   12.13655493764524    2.24821360902262
H        18.09133388069060   12.70213232749386    2.60212298044731
C        23.27951447825999   12.06564813978532    9.45853085305635
C        23.91356163895550   12.12175957078099    8.21892926760034
H        23.32881449231156   11.93815734401531    7.32973691323626
C        25.26320747194018   12.40618766607826    8.14194524383109
H        25.75315071273034   12.44730005298404    7.18012918563197
C        25.98815840855991   12.63934303239910    9.29996889155205
H        27.04327812474571   12.86316866334235    9.23957257336733
C        25.36160987325312   12.58502897286395   10.53610915808863
H        25.93085118342652   12.76622798357354   11.43600479867312
C        24.01307388474827   12.29845775388846   10.61991718980853
H        23.51218028527727   12.25039450973201   11.57444417922621
C        17.63631554984958   14.63599124061930   10.23873440928444
C        16.28929767612419   14.98037948044504   10.22112393369858
H        15.73304659687209   15.02010106987359   11.14727848700999
C        15.66357414904800   15.25634155448281    9.01781567187888
H        14.61683516481916   15.52379174037744    9.00759380370428
C        16.37100904976840   15.18017986484447    7.82972938042568
H        15.87773917243915   15.39020930305077    6.89184694601776
C        17.70929952610531   14.81784087776989    7.84092792934595
H        18.25719043395929   14.73939583560740    6.91314541966872
C        18.33869527725872   14.53525121839093    9.03771497113986
H        19.37254806076998   14.21433038152255    9.05132222221782
C        17.60149016350535   14.92852796356986   13.10398473659126
C        17.37533710293782   16.29745414944568   12.97248666445119
H        17.68405792331585   16.81066756412121   12.07141012153121
C        16.75333817824111   16.99078650126997   13.99198616614085
H        16.57307172590372   18.05125537267775   13.88916615279663
C        16.36022350174996   16.32725821817568   15.14507261155634
H        15.86933056047514   16.87319637256245   15.93766657377562
C        16.60050471580984   14.97134387553555   15.28187213471436
H        16.30204223894931   14.45596635105057   16.18266144257188
C        17.22503869147437   14.26828120191427   14.26559111002164
H        17.42676695777635   13.21266838248545   14.37615341049033
C        20.07689748772842   14.85603019030814   11.77605172899684
C        20.39691245085268   15.97730886269212   11.02052049084402
H        19.66283163655977   16.41800363073391   10.36037283175881
C        21.66594745513587   16.52264930379937   11.10421992922835
H        21.91563580731067   17.38958230351993   10.50957597264707
C        22.61365894222575   15.96162505902161   11.94380666121235
H        23.60430791229976   16.38851016584622   11.99876509740652
C        22.28995845719468   14.85616763223635   12.71393775836668
H        23.02501125630289   14.42496487667588   13.37719555476806
C        21.02612551801442   14.30329934002315   12.63213569385919
H        20.76350716543641   13.43540035654457   13.22374896730717
C        19.90019909296944    8.37064852175517   11.77878648177150
C        20.80335733129579    8.63894524768993   10.75001384618987
H        20.48483539103871    9.24296567471307    9.90908833785363
C        22.09161180294982    8.14588397840832   10.81374476489356
H        22.78954300386103    8.35938060318340   10.01700392839861
C        22.48968296766357    7.39078120313559   11.90694149141888
H        23.49947868471676    7.01110849172281   11.95989923129152
C        21.59887836506224    7.13376787235102   12.93512702152871
H        21.91390388133658    6.55547298968000   13.79137412261783
C        20.30592022747953    7.62569364876873   12.87854976484979
H        19.61586550304900    7.44113102579795   13.68963120124581
C        17.26606169061134    8.31969193509738   12.93743804494930
C        16.78688716925397    8.97319210681291   14.06444033937163
H        17.01987506249067   10.01501170279691   14.22603680975451
C        16.01714427892286    8.28141101963749   14.98437607058699
H        15.64458202714239    8.79179518207508   15.86006217074824
C        15.72601739705998    6.94368731581742   14.78357882256415
H        15.12443571559415    6.40635597725147   15.50228106853848
C        16.20551502897811    6.28901380618289   13.65838826040418
H        15.97898161452041    5.24421749804411   13.50159289068618
C        16.97105475671451    6.97205214150364   12.73430951158899
H        17.34495679160569    6.46717819299140   11.85307088139878
C        17.51432638437748    8.55115052831335   10.15211866229827
C        16.24500077791719    9.04711416043247    9.85943118501121
H        15.77332377743705    9.73401453977179   10.55063071725699
C        15.60318342647009    8.67578409717934    8.69433415779197
H        14.62033090587683    9.06501356731025    8.47184296587839
C        16.22225757041468    7.80639206125329    7.81028213480976
H        15.72664482560042    7.52237802850194    6.89350069643535
C        17.47522161404973    7.29781346089563    8.10581217076185
H        17.95397814033096    6.61055376989749    7.42334854434709
C        18.12314757303663    7.66491227236030    9.27297481352034
H        19.09898602625109    7.25865130412744    9.49731572631471

