57
CSD_code = OZIWEB | q = 0 | S = 0 | Stoichiometry = C25H25Br2N2O2Re | MND = 6
Re        5.47615218838495   11.71868185666541   11.76802096938554
Br        7.58075809216589   10.62299814300273   10.85153977102099
Br        3.25565275654763   12.73591335956147   12.57195042614320
O         6.32233784979615   12.53339526719523   12.92860166255204
O         4.52325328780248   10.87557240352286   10.54869239732129
N         5.73984633539653   13.39625247636218   10.39647291447897
N         5.19919640328154   10.04678564260902   13.14184305086548
C         5.26528156342002    8.78811807180449   12.71662122952059
H         5.48510954837956    8.63306658837883   11.66841727258394
C         5.51969228614547   16.40610570360207    5.31581877108884
H         6.55838439047285   16.30257736402656    5.03457400028642
C         3.50232221763829   10.41455737130016    9.77692213883591
H         3.45433788580235    9.31684537399353    9.81139671279619
H         3.63730718531599   10.72330960664137    8.73049167375267
H         2.54801078750241   10.82243795516858   10.14437903567520
C         5.08974060335110    7.70920046369266   13.56036380464736
H         5.15525400075371    6.70865384434342   13.16158341514402
C         4.83807551101972    7.92599154417998   14.91036605612449
C         5.78998297114992    6.84824104774528   16.90252845652927
C         5.18297508108214   16.62600824089586    6.64344660027126
C         5.98820415900898   13.19860536232462    9.10265905896143
H         6.07090948514887   12.17265895489243    8.76888683787370
C         4.96575515565300   10.27265098923199   14.43544682963329
H         4.92725414585703   11.30897574550066   14.74418182932876
C         6.24203212089215   16.69956214008198    7.71720377989449
H         6.15860617689777   17.64373752167845    8.25929345873436
H         7.23183119453524   16.65172902103313    7.25763433509853
C         5.66372671355110   14.64684268880833   10.84770892403426
H         5.46518518565928   14.76769608683454   11.90460721314973
C         4.78370250794454    9.24975744954251   15.34119867646234
H         4.60406379108504    9.48115516454183   16.37899790194047
C         5.82709460303677   15.74137192539586   10.02217842436525
H         5.75549401957479   16.73344008158276   10.43967521231973
C         4.67609605411851    6.79850996482805   15.88306595541795
H         3.71345253124408    6.89112771030906   16.39044897711951
H         4.69856400241766    5.84390768168876   15.35310915843625
C         7.10578250578685    6.66913142494914   16.49345505009838
H         7.32100779978146    6.48290952963498   15.45087438568596
C         6.08209412441625   15.55283466419703    8.66826022335876
C         2.85862440200969   16.67374797491290    6.02177023857373
H         1.82095456630701   16.77725710110104    6.30198919558680
C         3.84316525490250   16.75587532704033    6.98923690726681
H         3.57223611729372   16.92226460979074    8.02218738963876
C         6.15942753421636   14.23857275865597    8.21390316862195
H         6.35436485707063   14.02776948854401    7.17412546720416
C         7.86767803289464    6.97237132677688   18.74691340739193
H         8.67410103241397    7.02033461101637   19.46309919996915
C         5.52595781027931    7.09529325783207   18.24161592460910
H         4.50638328913817    7.23770576004760   18.57160911367051
C         3.20252455847193   16.45913079509368    4.69723817722908
H         2.43405721115370   16.39618467833850    3.94144135432868
C         6.55982853121978    7.15358882043804   19.16071481419335
H         6.34169768991301    7.34279462250170   20.20138998372688
C         4.53436762385475   16.32635362975952    4.34620755826291
H         4.80915653751475   16.15945514407261    3.31515972099732
C         8.13886372527254    6.73023875137584   17.41045553775856
H         9.15748400390784    6.59054491110799   17.08092624978996

