95
CSD_code = OZIXOM | q = 0 | S = 0 | Stoichiometry = C48H38N4P2RuS2 | MND = 6
Ru        0.41411715035550    6.92207237004839    2.79384709687746
S        -1.28911062425332   11.19781647080004    3.27483300467378
S         1.42031620063335    3.37104719537563    0.03416988340591
P         2.12872579509315    6.73555511315972    4.41824388438645
P        -1.16147149027739    5.50455407847394    3.82031679385656
N        -0.56530565867561    8.54423303580780    3.50221964985808
N         1.36549144585066    5.30241016287918    2.00360080707157
N        -0.50493231505901    6.85047270473753    0.98397677978757
N         1.47010652824473    8.28945127627093    1.79814595036432
C        -0.85667815643056    9.67718454093604    3.35769222285668
C         1.34490948753709    4.48416740967097    1.15652345174220
C        -1.47441056018566    6.00811616025418    0.63041677318116
H        -2.11732113244062    5.65306185746044    1.42439753813254
C        -1.68530469098079    5.58335485698980   -0.66529553815395
H        -2.47671697436022    4.88223655810357   -0.87480454505986
C        -0.85185387207028    6.05219922612834   -1.67272137120088
H        -0.96782836168632    5.71890803169506   -2.69160341807147
C         0.13847804926040    6.95088158783812   -1.32989127885340
H         0.81743840599581    7.32904006363467   -2.07707657724102
C         0.29094525875707    7.33726851200814   -0.00018456766263
C         1.28332057442255    8.29587496418667    0.46053803720596
C         1.92268283224993    9.22086752648276   -0.36366464998221
H         1.76263851076463    9.19193390866011   -1.42933174799235
C         2.73081408829792   10.18830375286065    0.19924157236759
H         3.23803935309408   10.91156948357217   -0.41944936738310
C         2.83785963958720   10.23282188227403    1.58512497261196
H         3.41090129079446   11.00182740323944    2.07670409160915
C         2.19658360523324    9.27108691300485    2.33580415872975
H         2.26026746411610    9.29140773085457    3.41767560782688
C         2.16675095214485    7.64866298697009    6.00287733731242
C         1.38972617228267    8.79467547509987    6.12934435494569
H         0.75615157623729    9.10175365558058    5.30897778904063
C         1.40961338155315    9.53335905400079    7.29968528685672
H         0.79746128160509   10.41907620875008    7.38342743786200
C         2.20987467210226    9.13497313125392    8.35631685171509
H         2.22274182433837    9.70500947367216    9.27363895847634
C         3.00113244482642    8.00346606088903    8.23267679885903
H         3.63624700841143    7.69573240716876    9.05086242601809
C         2.98756336836507    7.26634556876913    7.06337153058635
H         3.61858862805675    6.39324818005122    6.97189832808631
C         3.75694090540824    7.22117974604307    3.70565048621907
C         4.05253027682923    6.85446469629743    2.39326414527560
H         3.32729689321688    6.29613358809055    1.81588528206416
C         5.25696418615565    7.20669224089873    1.81395385201587
H         5.46757450882162    6.90999320372591    0.79668289143921
C         6.18575505793882    7.94101497181952    2.53210188654957
H         7.12527518679813    8.22128474574933    2.07948124309734
C         5.89860737935928    8.31809435820698    3.83208538308598
H         6.61431341530557    8.89595679672700    4.39861032924441
C         4.69469839318076    7.96393438581807    4.41640113441530
H         4.48920069482468    8.28097289577729    5.42790807568914
C         2.53367999507182    5.03843391918568    4.96949209038111
C         1.99778804871736    4.54726945391736    6.15869484946201
H         1.40009346711850    5.19211265448504    6.78542707379775
C         2.23536458011109    3.24139220243883    6.54681380427163
H         1.81312289726927    2.87651660354675    7.47169858220819
C         3.00449841734553    2.40662418625127    5.75304450360302
H         3.18401304454348    1.38516654817050    6.05456588001552
C         3.54506008586575    2.88950076547970    4.57292861475857
H         4.14807735658328    2.24614035251589    3.94925855381287
C         3.31389705087422    4.19634650726305    4.18158046832089
H         3.73824438033982    4.55564214116371    3.25725405891324
C        -1.05854705143285    5.31960590993885    5.63351218981686
C        -0.97246037060029    6.51846060606598    6.33687104312112
H        -0.94301107692888    7.44613665013118    5.77911354568367
C        -0.93263688435173    6.51625282975327    7.71790999338196
H        -0.85364184213071    7.44841917878606    8.25794729312180
C        -0.99340085965535    5.31394781573879    8.40634818184884
H        -0.96092651583948    5.30728222982629    9.48602125095468
C        -1.10236863099003    4.12141165524641    7.71028574504355
H        -1.16234923683283    3.18624408896618    8.24842713562127
C        -1.13507222970991    4.11748883844307    6.32578372880441
H        -1.20921058295225    3.18149475511671    5.79016314511971
C        -1.21292289301796    3.77947446398335    3.23583774021371
C        -0.07329061221008    3.01242554907439    3.46798497383461
H         0.74589164734131    3.44529288374032    4.02351448439618
C         0.01500844738366    1.72241826846244    2.98317193096030
H         0.90802097278133    1.14253460329720    3.16388198084095
C        -1.03196780633157    1.18597131176636    2.25147250468505
H        -0.95963622952920    0.18326217728540    1.85739808955409
C        -2.16771002389955    1.94197986530085    2.01699647531143
H        -2.98487997875724    1.52644988888349    1.44497900088848
C        -2.26155276632282    3.23454164155390    2.50261990994650
H        -3.15809151076659    3.81049488456169    2.31355049365307
C        -2.92677712607563    5.99556940368739    3.79059808282890
C        -3.35479871810460    7.14475090822279    3.13740334131159
H        -2.63806607798152    7.76535571989946    2.61765470430810
C        -4.69104755722994    7.50607353511676    3.16537374435244
H        -5.01147599606055    8.40592963771862    2.66166492164859
C        -5.60948078741265    6.72086725552377    3.83992722116557
H        -6.65176254783952    7.00299740240467    3.86164762817159
C        -5.18865292010865    5.57272370350337    4.49370106678738
H        -5.90277723075836    4.95930573441218    5.02375147880342
C        -3.85502283552397    5.21295291641996    4.47541320016187
H        -3.52653154362978    4.32198974396891    4.99296427032333

