74
CSD_code = OZOKAQ | q = 0 | S = 0 | Stoichiometry = C27H37BF3N2O2PPd | MND = 4
Pd        5.13528798682045    8.06884324370930    7.15723197478374
P         6.16347571917763    8.32452979065170    9.15528964698715
N         4.04706153512323    7.81724883878802    5.20348687057362
F         5.00362240140172   10.50029724832812    8.18389610623016
O         7.80691570898128    7.93255816223889   11.59954635928415
F         3.03898969869739    9.44303693543133    8.02959768544718
O         8.97190785541415    8.39035647080774    8.42905246190239
F         3.11939364816990   11.53467117773740    8.95964940876206
C         7.92994908561019   11.74377577488255   10.61489533089232
H         7.62850367445271   12.61741935475067   11.17221415032662
N         6.54532749059083    9.30050209584761    5.72301396205239
C         7.14189972898287    6.85716413401682    9.63609261224705
C         7.35436826548191    9.65911465868227    9.55484968462442
C         3.50411531689394    6.50774240417376    4.84958729224570
H         3.01543677357073    6.54077225366697    3.86439601158919
H         2.76659665715105    6.20080012049569    5.58789346363673
H         4.30054972920725    5.76263978960339    4.81805833883256
C         4.96137841079818    8.23223258526085    4.13547018739441
H         4.39245854510604    8.44292788360264    3.21227195362017
H         5.63868150821039    7.40087729524684    3.91599875084208
C         8.69403954181429    9.50582835486897    9.17265874784950
C         2.93740162238432    8.76837228337756    5.29336529789146
H         3.28893814096303    9.73186003108883    5.66075649789228
H         2.20065420554024    8.40113131138496    6.00532056817498
H         2.45576324863470    8.90024193680688    4.31261316035794
C         7.22017026086599    5.79381321872085    8.75291423128041
H         6.66408774380015    5.86641391877110    7.82059620509571
C         4.04950614773055    6.56107245941521    8.04774319241727
H         3.01448351087265    6.91085904753112    8.04105025009265
H         4.32220968056599    6.32537828349511    9.07796204690321
H         4.14935408991774    5.64973073685857    7.44670561631721
C         7.89353069519862    6.82268074566257   10.81983966942640
C         9.25276872488497   11.57131596466703   10.25514937295791
H         9.99536564688135   12.30599439990376   10.52997414883534
C         6.98837335367408   10.78884158011193   10.26904958841673
H         5.95682466244515   10.91868380755672   10.55599364111198
C         8.70597343392578    4.63954788325698   10.22503966440720
H         9.31180428451873    3.77812292440002   10.46568486177878
C         9.64009039421360   10.45302765245624    9.53355975877458
H        10.67554408203144   10.33394609269774    9.25219509934086
C         8.66573850277251    5.70530529122196   11.11092613027202
H         9.24363907355421    5.65663691089981   12.02125019103316
C         7.10371014857807   10.58896790982095    6.11238698682800
H         7.68401109516980   10.47607969619511    7.02482651786276
H         6.30110619874669   11.29378920807126    6.31729305230828
H         7.75111536627164   10.99652071264729    5.32006674580651
C         7.99154394852997    4.68043050385992    9.04212939785219
H         8.03968900879275    3.85278606951813    8.35037844451438
C         5.77259047706837    9.47458171611685    4.49581649585511
H         6.43964474183476    9.71373827426750    3.64597590731302
H         5.09833964329143   10.32299438877097    4.63752784297449
B         3.76284021434065   10.32047555145265    8.89577699351281
C         7.63711667061020    8.34950501366832    5.51247955850538
H         7.24815595121194    7.35220568474801    5.29463869643060
H         8.22719165199173    8.28623547500592    6.42408400237963
H         8.28575896867681    8.66893338808736    4.67994956394870
C         4.91171664998478    8.54145944467991   10.46198955819186
C         3.95932443120730    9.55867888783542   10.31150759603029
C         3.04131825908546    9.75546422954169   11.33775893995570
H         2.31312205893182   10.54547662764485   11.22534640462797
C         4.86507803158321    7.70285490951062   11.57110944724775
H         5.53982222483494    6.86265531320008   11.64904937369864
C         8.47914682338076    7.96658492852855   12.83166916929087
H         8.13745305717981    7.16933292304705   13.50003646769238
H         8.23483964811178    8.93312382989928   13.26908416294780
H         9.56460551708365    7.89302460490122   12.70264734924369
C        10.30993389454678    7.97575076628209    8.30153346912214
H        10.88065704205283    8.64331918561359    7.64649276910288
H        10.27118610800172    6.98121217701571    7.85836554681740
H        10.80319433380734    7.91516394404554    9.27593888075425
C         3.03821043235290    8.96276823269626   12.47105605025540
H         2.31972349306187    9.14058659114244   13.25908006329120
C         3.93596863756771    7.91430751666207   12.57338272867907
H         3.91140448509533    7.25637724244648   13.43148162405377

