65
CSD_code = OZOQUR | q = 0 | S = 0 | Stoichiometry = C20H38N4O2Zn | MND = 4
C         2.62925415749244    6.41630176909260    3.59821765735233
H         2.28608571600870    6.85523699610159    2.66159881868988
H         3.14465337303360    7.19209593301341    4.17688263821641
C         3.23096505417751    5.53313979939428    0.95454578186440
H         3.53002778372441    4.98997556242180    0.06327398246631
H         3.55306620565546    6.56837591616572    0.84685511589320
H         2.14533968856917    5.50890998560765    1.03718341589737
C         3.85349666046368    4.90994834172919    2.17989423547621
C         4.76987040525662    3.86882891212338    1.93972931927375
H         4.94241628028011    3.61423435027198    0.90444220318179
N         0.25306783228162    5.17463393887485    2.32764139224564
C         5.47188709955169    3.11843125308635    2.86640898446673
N         3.56620738991260    5.33103982671972    3.38629580996369
O         5.42956252579979    3.23980379311402    4.13192502114890
Zn        4.17534022353639    4.36202991536680    4.96312005273823
C         6.39820821267744    2.04415812033540    2.32803615413158
H         7.07560251157834    2.45905005022706    1.58558456519528
H         5.81472814187530    1.25643016501821    1.85602937357380
H         6.97081533329771    1.61760093073845    3.14683142390989
C        -0.12656629822787    3.98589400665904    1.59010612985550
H        -0.36392129986367    4.26296188845755    0.56281328449152
H        -1.00161055961738    3.47742616590928    2.02416590514213
H         0.70984710127924    3.28844887916113    1.57913429365356
C         0.64690009363398    4.83507255533201    3.68845405401624
H         1.30873112232508    3.96745991185604    3.63651556316733
H        -0.22941951531610    4.55383467295362    4.29916375053029
C         1.40837758236565    5.95370567592119    4.39766908618319
H         1.73783623981878    5.56827765166202    5.36428141743075
H         0.76256722968169    6.81470049765425    4.57916581330393
C        -0.80850062274913    6.15953754142306    2.29138800749449
H        -1.04880010663184    6.38577596930592    1.25274411314165
H        -0.47572187481947    7.07655243938768    2.77250746202755
H        -1.72523353645676    5.81179569161414    2.79400932802013
C         5.72134561954503    6.41631634014682    6.32805961796289
H         6.06452354373035    6.85521634020979    7.26469344648938
H         5.20593841451080    7.19213066872951    5.74942767786467
C         5.11958828848523    5.53315142059411    8.97170395434460
H         4.82050672334678    4.98997670886183    9.86295972777898
H         4.79746981729897    6.56838121419330    9.07939964086457
H         6.20521819639132    5.50893324585507    8.88911070060863
C         4.49708318523869    4.90994826650255    7.74634125984346
C         3.58075178054933    3.86879077236489    7.98647694823614
H         3.40815930188417    3.61419837294615    9.02175674623372
N         8.09751379274258    5.17459941002429    7.59859764829234
C         2.87880437233785    3.11835172628300    7.05978144105318
N         4.78439699564106    5.33104514420145    6.53995074553377
O         2.92118494748399    3.23967978081554    5.79426561034873
C         1.95244416475133    2.04413064725616    7.59817363992488
H         1.27362779747685    2.45959559596320    8.33901587659686
H         2.53565248049420    1.25740138546081    8.07218229619441
H         1.38128570289402    1.61614043398096    6.77912129089101
C         8.47709719618279    3.98581837197822    8.33609296722561
H         8.71441744059100    4.26284526325715    9.36340526507614
H         9.35215817743797    3.47736402246652    7.90204500829502
H         7.64067175710857    3.28838300279734    8.34700083935387
C         7.70373475018730    4.83510071769200    6.23775542768687
H         7.04189294038904    3.96750185739078    6.28963419168598
H         8.58005514978035    4.55387649492142    5.62704169973236
C         6.94224129338212    5.95376035904043    5.52860891752932
H         6.61278292798505    5.56837271543980    4.56198449971202
H         7.58806748616246    6.81474391358063    5.34713044607640
C         9.15910639423947    6.15947302063085    7.63490282575124
H         9.39936539813265    6.38568440326217    8.67355994951985
H         8.82637809315113    7.07650728961397    7.15378265694928
H        10.07585571776973    5.81171198963025    7.13232288404804

