57
CSD_code = OZOQEB | q = 0 | S = 0 | Stoichiometry = C18H32N2O4Zn | MND = 4
Zn        2.13965114285838    2.34649248100280    4.35634570336027
O         2.54730644702482    1.23190372992611    5.80204147454194
C         0.98496553797837    2.24706465857580    7.26845590340192
H         0.63062179006501    2.20023629111558    8.28739200829876
N         0.67348293953529    3.37229509294277    5.17749943130530
C         1.97509106387455    1.34073225217762    6.93155249521474
C        -0.65953173635106    4.08399575066602    7.10821885760135
H        -1.64344470870422    3.89663427539270    6.67923576152106
H        -0.42355365546443    5.13684912233873    6.96145321296814
H        -0.70657620408692    3.88120374635898    8.17375120166981
C         0.37671474507704    3.21103127992947    6.44477393997903
C         2.43873829640627    0.38500798245956    8.01361479442609
H         1.63854207457959   -0.31075999498680    8.25782332992745
H         2.70566110061669    0.92804340226589    8.91706350212242
H         3.29751346596685   -0.17608036929171    7.65596479114982
C        -0.01156380345797    4.40991990593266    4.42912811098892
H         0.44160353940619    5.38193245902356    4.67041478106733
H        -1.07326957104983    4.45106673398464    4.69149103057923
C        -0.83260920576071    3.02521381651396    2.49937527822127
H        -0.67391225480648    2.79320383499235    1.43493138008768
H        -0.58246750948244    2.12849550453698    3.08331130969515
C         0.06133179294331    4.18403292304190    2.92243651514247
H        -0.28170437340816    5.08841459819182    2.41684589041058
H         1.08655554136790    3.97550164594640    2.61697640169720
O        -2.18156213354899    3.38803676447135    2.71568480876161
C        -3.07530179692411    2.34775177939652    2.42753974371098
H        -3.00806076899407    2.04440326214108    1.37489722613661
H        -4.07550570882648    2.72567797140942    2.63154434792322
H        -2.87906721114636    1.46945087770062    3.05548470564759
O         1.73196034583857    1.23198023263925    2.91066639226146
C         3.29426089939374    2.24712937713412    1.44422196782370
H         3.64856399544294    2.20031783643013    0.42527130110265
N         3.60577882070246    3.37251422640976    3.53510343803664
C         2.30437288500573    1.34062922744329    1.78120371453955
C         4.93849389576678    4.08429934630738    1.60422181394372
H         5.92250129353159    3.89703296207125    2.03308708492541
H         4.70247155643120    5.13710922364420    1.75102511432142
H         4.98540999922988    3.88149282535027    0.53869683101980
C         3.90226843555088    3.21138905395405    2.26774700866617
C         1.84038789295705    0.38521609657903    0.69902335615388
H         2.64038383443735   -0.31080815778560    0.45503735944570
H         1.57368196213065    0.92816169248019   -0.20459146937382
H         0.98142380195594   -0.17549729040704    1.05679146531222
C         4.29111221290323    4.40999399042448    4.28343083385116
H         3.83817438630141    5.38208492813867    4.04209164675356
H         5.35283134375066    4.45088813453373    4.02102450930740
C         5.11210486064560    3.02533353204166    6.21320434977468
H         4.95351708570941    2.79337847489038    7.27767869274842
H         4.86181865485488    2.12861992010200    5.62932540666581
C         4.21824801955622    4.18421855537792    5.79015171515641
H         4.56145900489746    5.08857902369593    6.29567496465596
H         3.19301625390302    3.97584796408463    6.09569824035040
O         6.46103723818140    3.38811375526471    5.99670547275098
C         7.35486114667725    2.34786824632974    6.28472277944299
H         7.28778984849355    2.04450860638292    7.33737554504171
H         8.35500656904362    2.72588181236831    6.08058047585324
H         7.15861492096832    1.46956462590407    5.65678205196499

