36
CSD_code = OZOZOU | q = 0 | S = 0 | Stoichiometry = C18H11Cl2CuN2O2 | MND = 4
Cu        2.89034293849639    1.96143983957820   -0.11311523229643
Cl        4.24121437585397    2.17544396433094   -1.86247107215117
N         4.13921066026948    0.64599382546037    0.74503125139005
N         2.05930681509993    0.21399428231025   -0.76636819848669
O         2.64554142956561   -2.03689172800148   -1.03198184022545
C         5.24710180130195    0.97161777119569    1.44369954671892
C         5.40146770007266    2.28142051539974    1.93985636386165
H         4.61785261070082    2.99616893799813    1.73463833779334
C         6.52718467156762    2.62909998618080    2.63440500873668
H         6.64521558926927    3.63713895720058    3.00185314267608
C         7.53994227467232    1.68689477294734    2.87309114648489
H         8.42140889653870    1.98368245601176    3.42126011423545
C         7.41418865723295    0.40471098200767    2.41263494847891
H         8.19086272340872   -0.32536357725338    2.58803129379360
C         6.27175911575548    0.01380711962309    1.68879338863980
C         6.09673512360805   -1.29211880997460    1.18081465226745
H         6.86165335178054   -2.03463882686476    1.35553330624792
C         4.97224272623283   -1.59148013225340    0.46556361872539
H         4.80061196275744   -2.56827321870667    0.04347011217062
C         4.01026350027539   -0.58416392877834    0.26239705521648
C         2.82951035571212   -0.80009193763830   -0.56222308836124
C         1.76825274347096   -2.19419514403001   -2.14850702092971
H         1.34603368240968   -3.19935458424318   -2.05641276572769
H         2.37724093424222   -2.15349593732889   -3.06557522801461
C         0.69137123801966   -1.14720839093464   -2.20977657715666
C        -0.46300137185750   -1.32545635051024   -2.94593881115383
H        -0.63596629809470   -2.24911212382058   -3.47620271412276
C        -1.39470839112035   -0.29734834622858   -3.00952060597512
Cl       -2.83070887382010   -0.51923872501709   -3.93542269688428
C        -1.18245893958218    0.90231711891015   -2.34501675852314
H        -1.91322862663234    1.69227814036956   -2.41239097081484
C        -0.03114000192124    1.07460264694297   -1.60232681080531
H         0.16226267183508    1.99612857495013   -1.07427336154293
C         0.91192096847302    0.05471644816372   -1.52906774823454
C         2.14415201552013    3.51705644560302    0.26161117906586
O         1.82026096888304    4.61231897639891    0.24040703490397

