62
CSD_code = OZOZIN | q = 0 | S = 0 | Stoichiometry = C27H28BF3NPPd | MND = 4
B         2.29962236885950    9.11554708176841    7.28384720455347
C         1.11663718757154    6.18899090048416    9.61473897545304
C         1.43652150323975    6.82456954879615   10.80986758707169
H         2.42189181566732    7.27531173845231   10.91461781945901
C         0.50303706777597    6.89901980290255   11.82759154533475
H         0.74946398748045    7.39671537419960   12.75414492828711
C        -0.75320040295598    6.34076574306556   11.65498354927349
H        -1.48414702128176    6.39803051803568   12.44830441646712
C        -1.08076049372691    5.72166787636799   10.45912388859227
H        -2.06640208592033    5.30083768535114   10.32155980008299
C        -0.15276717964986    5.64934008534967    9.43585197248144
H        -0.41682850196743    5.18824894516831    8.49426951517230
C         1.45803796590089    6.66757176270298    6.83631408266377
C         0.76510259601067    5.71553311263282    6.09135140471093
H         0.83313991027263    4.66755037647079    6.35461353294009
C         0.00442359480222    6.10469919807801    5.00523356299181
H        -0.53196619843593    5.36319767858249    4.42990073534517
C        -0.06509741692522    7.44426412998900    4.65897850653361
H        -0.66282184290561    7.75222739355586    3.81296868820592
C         0.64040292143199    8.38424888926593    5.38846561840504
H         0.60136655991898    9.42793972516764    5.11362007916563
C         1.41446518401012    8.02208124143761    6.48565650176288
C         2.75525835516004    4.40988412647398    7.98575225838945
C         3.80135955723675    4.20496806154304    7.08767649454210
H         4.29435011001701    5.07492108010935    6.65738240944132
C         4.20075835611349    2.92472153708512    6.76058659442448
H         5.00730290203269    2.76740865124486    6.05925289323632
C         3.56622850282824    1.83712094766825    7.34343934380251
H         3.87769628075948    0.83365100707265    7.09337918460716
C         2.54173709163708    2.03629646386008    8.25273238030903
H         2.05696545189014    1.18784918492525    8.71365112487759
C         2.13423917321844    3.32013754489955    8.57796589237865
H         1.33926640900831    3.47331796746420    9.29407872937726
C         6.75487407407854    8.60536150503242    8.18903518239775
C         7.69055722902755    9.62537215452763    8.13686114270603
H         8.46382715782338    9.60890836550330    7.38416082489461
C         7.62197847992979   10.67774027198836    9.04497283656115
C         6.59674443195511   10.65390825632604    9.98059456665882
H         6.49343415658248   11.45401164838507   10.69735014081702
C         5.68899368570126    9.60339650101071    9.98702679579380
C         6.75868133874856    7.46155151788069    7.22074097216358
H         6.79688664719132    6.51347235752429    7.76727298729384
H         7.60766076045531    7.52402810738199    6.54444917876627
H         5.83243122039131    7.48671968077542    6.62999250242085
C         8.61074226755923   11.79650157205895    8.99163936679442
H         8.51658502008393   12.44404454004171    9.85907265803321
H         8.44413501141940   12.39272003984440    8.09508191620993
H         9.62588072904762   11.40650704702501    8.94686402641456
C         4.54827420371380    9.53614328431672   10.95147352476957
H         3.60731193538761    9.64976417682593   10.40100444747131
H         4.61360771282071   10.32551996662123   11.69602002551231
H         4.54130317678038    8.56182803189585   11.45155815040185
C         4.95320733055356    5.93009461942849   10.03366749321800
H         5.36014374460546    5.12079469849153    9.41991507323945
H         4.19104375507198    5.49680476282547   10.68645587602010
H         5.75880931467302    6.32972833730732   10.65581059288572
F         3.72375154580147    8.82896862834627    7.07042053209479
F         2.18285076012536    8.95748527652662    8.71066218266820
F         2.07420269021741   10.42204242192470    6.95534707097471
N         5.79136651678355    8.60298043432740    9.11282780600209
P         2.38982308141863    6.15944161369940    8.31779812397632
Pd        4.19680831299667    7.37562480198510    8.80532278249525

