108
CSD_code = OZUBOB | q = 0 | S = 0 | Stoichiometry = C55H44IrN5O3 | MND = 6
Ir        6.07885477494240    4.85791051630931   16.55724061909197
N         5.88867069504945    6.55121238558755   17.64950515552665
N         7.34093549442384    5.82422762089894   15.30229711862223
N         6.18978772195084    3.19720318429492   15.39702234561888
N         4.70484134764359    3.94181598438820   17.71547203631548
N        10.78253815000300    2.85626753799532   20.15655227437139
C         5.07857530674208    6.72440164948090   18.73013204342044
C         5.33247323514225    8.00652308289644   19.32277125072594
H         4.84922443534640    8.38380896015626   20.20253343863183
C         6.29416287244120    8.60089613233036   18.57849363200889
H         6.75035982263865    9.55880921811975   18.73212316741646
C         6.62048092359350    7.69304451827042   17.51613371562896
C         7.51403573041963    7.97460129562922   16.48404078038660
C         7.79215680841797    7.10302897615205   15.43060452719008
C         8.56770771911738    7.45833236887772   14.27731726490976
H         9.01369771188447    8.41885620937989   14.10855076468298
C         8.58769178878531    6.37483025443241   13.46566995727828
H         9.05330158819680    6.27819247091778   12.50460895997783
C         7.84011122139463    5.34419934627572   14.12733772530651
C         7.68076688498865    4.04802065781331   13.63458783164478
C         6.94604163109246    3.04742301966591   14.27285925908583
C         6.90137766833223    1.68027502382281   13.83983786789469
H         7.43071798428486    1.28516603509853   12.99507616179532
C         6.10596728482439    1.01726842989445   14.71177842331693
H         5.85773702831825   -0.02561531680165   14.71663227371706
C         5.64469085060969    1.97858125959387   15.67142938701656
C         4.73867755739136    1.70446760515875   16.69438796587342
C         4.27051824148389    2.65788405277748   17.59870789880176
C         3.20646373330600    2.42103452845713   18.53284913008043
H         2.66510532860767    1.50008178596425   18.62669646559140
C         3.01981137723184    3.57315841749727   19.21706439749756
H         2.29608369313055    3.77864459299985   19.98110941391906
C         3.98130672191119    4.51492574830583   18.71676675693001
C         4.14801478781845    5.80590833581881   19.21751294500222
C         8.19176399455314    9.28711515296874   16.48035871121732
C         7.46857067290457   10.47193890777597   16.37829599753960
H         6.39205610522781   10.43103261919190   16.28998345843269
C         8.11725387410178   11.69114343015665   16.37365276771915
H         7.54265737944143   12.60291042822101   16.28951222640479
C         9.50235592763819   11.76502661326625   16.47603927872239
C        10.22077519917262   10.58116871433806   16.57586299553066
H        11.29789519606476   10.61547099651488   16.65704763498000
C         9.57750904140674    9.35730704089501   16.57381475908212
H        10.14759956340761    8.44366808729609   16.65838014104465
C        10.18919688679012   13.09651294761183   16.47704702386629
H        11.26651792444850   12.97942794851367   16.56137341447446
H         9.83914653610106   13.70278783473935   17.31180212981184
H         9.96871113075635   13.63896469115693   15.55826619200915
C         8.35429603515292    3.70184741901985   12.36558194171373
C         7.61093621357614    3.31240397833942   11.25506788467806
H         6.53325853127403    3.26689541868181   11.32680490772534
C         8.23740296692328    2.99515630514827   10.06606607530217
H         7.64521454383856    2.70039355991220    9.21112861979470
C         9.62217815769226    3.04871372124173    9.95188484333515
C        10.36177555437807    3.43015482618480   11.06354476854132
H        11.43968610426484    3.47203534226191   10.99833302885055
C         9.73941892862698    3.75549501413240   12.25442766334653
H        10.32956682802081    4.04214518168140   13.11274595074730
C        10.28770873730313    2.71256930956465    8.65261805968754
H        11.36125053397715    2.60144720636661    8.78180340836755
H        10.10970979922627    3.50395697218241    7.92403555645749
H         9.88496271905616    1.78784364710020    8.24302382416876
C         4.22394863008634    0.32625191682546   16.82604849080789
C         3.48190975275825   -0.27098322795748   15.81366890440014
H         3.26246972326674    0.28791319598384   14.91518794471633
C         3.01024267163703   -1.56347790876950   15.95638207080640
H         2.43056018148265   -2.00930432725876   15.16027507500389
C         3.27131181821555   -2.29511873518969   17.10673108801451
C         4.01203855073065   -1.69365783327664   18.11909028663482
H         4.22480508664610   -2.24900285112418   19.02148583819973
C         4.47846687507446   -0.40131850339328   17.98578328441798
H         5.05795751594279    0.05318532644427   18.77605707715630
C         2.77104705594415   -3.69784649030255   17.27012977904711
H         2.26163276161781   -4.03851125801726   16.37228446602172
H         2.07573133095286   -3.75681918847724   18.10706904617464
H         3.59909225819777   -4.37375283410438   17.47964317759651
C         3.29869512299337    6.22557061882627   20.35172686961426
C         3.37542546084813    5.57466187137267   21.57957147549574
H         4.07351770709011    4.75963620423421   21.70491889369416
C         2.57889684681646    5.97334368420159   22.63489038501491
H         2.65378362779736    5.46184970123624   23.58403706132530
C         1.67960270776750    7.02499381430588   22.49559165857843
C         1.60405832146459    7.67081900252820   21.26887322693132
H         0.91002536993053    8.48919852912862   21.13832951743757
C         2.40488365980319    7.28133417244362   20.21131848384893
H         2.33078349417153    7.79027945944624   19.26086995625853
C         0.82965904666999    7.45313311158268   23.65253243273199
H         0.04390064439923    8.13165506825817   23.32984753513287
H         1.44057936989455    7.96480707250848   24.39655494171987
H         0.37369875969004    6.59020564935756   24.13447886035764
C         7.59854299528789    4.20982207295082   17.72530403689479
C         8.77464201033437    3.69940323790990   17.16375318023323
H         8.88577211391195    3.64135823910972   16.09171062419372
C         9.81782106865255    3.25577450963564   17.94970723387652
H        10.72241371707629    2.86102613726394   17.51186506228034
C         9.70665552364735    3.31401362319388   19.33500206637447
C         8.55013554098644    3.81702134023675   19.92205740165267
H         8.48277726442696    3.85615372576031   20.99897616222765
C         7.51584026513737    4.25630282669838   19.12206858581732
H         6.63036078209219    4.64451057045935   19.60237460020881
C         4.07766732776076    7.01443292433613   14.86567115136485
H         3.22106565046322    7.18736287013454   14.20732958296078
H         4.96390491809416    7.49723560092404   14.44277738442819
H         3.87125469729389    7.44909987988045   15.84178438054220
O        11.78708779604482    2.44469377750803   19.60609462124938
O        10.63917867900517    2.90201196651301   21.36434314223051
O         4.27883626467886    5.63007720608259   15.06628050681938
H         4.45595582642520    5.21113504768147   14.21641623068191

