81
CSD_code = OZUDUJ | q = 0 | S = 0 | Stoichiometry = C41H36BP2Rh | MND = 8
Rh        6.64453410152375   14.36829872037479   17.29299329227786
P         8.32831997772150   12.90128237670513   17.44005657997962
P         7.58531862067492   16.00978327855607   18.47758337607453
B         4.87715499032325   15.90219675644274   16.22139142555859
H         4.75820930619327   17.07572988895453   16.26122414617055
C         4.39749460073567   15.00484801109182   17.36809742344153
H         3.84560442519512   15.40846094804597   18.21642311045735
C         4.46583012400488   13.61444701539019   17.27019352197653
H         3.98522581841815   12.95977188563349   17.99579614899878
C         5.21968401039558   13.03404525561886   16.22575664548246
H         5.25959743744963   11.94893028441976   16.15024711370640
C         5.62220587386316   13.79145902396890   15.07942026055213
H         6.02050643749762   13.23109092029292   14.23564701610542
C         5.46517508834280   15.15666506831386   15.02159397713212
H         5.74319994773219   15.64333090763296   14.08949664120927
C         9.89435676256739   13.19093221282372   16.54389273834633
C        10.05490700808043   14.40682341880751   15.89178864731654
H         9.25191463424668   15.13415651713213   15.94755905217328
C        11.20885352771871   14.67345156126167   15.17684547632877
H        11.32693110936496   15.62331580705345   14.67545186341402
C        12.20797825690188   13.71718028280279   15.10271163864331
H        13.11198822473886   13.92068879326036   14.54745896232030
C        12.04161473241065   12.49006264977746   15.72626769827777
H        12.81375563145108   11.73779183804819   15.65060073956204
C        10.88711486701125   12.22097820883125   16.43834457403797
H        10.74510543311348   11.25269474697968   16.89952126765386
C         8.83850761231688   12.51918047369646   19.15325529278467
C        10.13776231168962   12.34032502242074   19.60436233205159
H        10.97069580817677   12.44432957092736   18.92541255586728
C        10.37126220687256   12.04525875919805   20.93706174322077
H        11.38578744106545   11.90844834795970   21.28246785535179
C         9.31795270681955   11.92803367545668   21.82644406101583
H         9.50919495345100   11.69596275038243   22.86385587995341
C         8.01791915331360   12.12109672240741   21.38622290283162
H         7.19343700345983   12.04172086107180   22.08027719785137
C         7.78418152714957   12.42030394450389   20.05916795797953
H         6.77506361093535   12.59094844017059   19.69427228758872
C         7.98070762575066   11.21815105111082   16.80470191747014
C         7.59432740369545   10.15609182697323   17.61267307595430
H         7.55947025195961   10.27836673007968   18.68607383340498
C         7.25938713167329    8.93804471768859   17.04594695790126
H         6.96401984066563    8.11546241501237   17.68155205978414
C         7.29837094420645    8.77125829725731   15.67228778915269
H         7.03295466184372    7.82032585378613   15.23416877024519
C         7.67457799359450    9.82982653134556   14.85969353357637
H         7.70188143470600    9.70485790222791   13.78668216626067
C         8.00958510810381   11.04561186586209   15.42204296011234
H         8.29817736796008   11.87872589157229   14.79392646575239
C         8.27296653578463   17.45874104919199   17.59807885310878
C         8.03534492839471   17.58446988622107   16.23569936228255
H         7.44206834041320   16.82608781636563   15.73847358884274
C         8.53714895859272   18.66675321906831   15.53428752739257
H         8.34726196692939   18.75910811907068   14.47479029759536
C         9.28212098796637   19.63079090315854   16.19224789825747
H         9.67606687679561   20.47679453405649   15.64795577998349
C         9.52268820685442   19.51133732437627   17.55251045051691
H        10.10183456467801   20.26507792297899   18.06664510476385
C         9.02300917510054   18.43084803670530   18.25540492406327
H         9.21383045105548   18.33628372784639   19.31600059302393
C         6.36470235655765   16.77879980451397   19.60202235988038
C         6.08721448997129   18.13712803856550   19.66231833712656
H         6.62788355060935   18.83144876426357   19.03603990860755
C         5.10374953876987   18.60603868796082   20.51779809022502
H         4.88911727462625   19.66437835645357   20.55558403507439
C         4.39252268757739   17.72857444100349   21.31719268719263
H         3.62689825271766   18.10049674269503   21.98237320123098
C         4.65307799096179   16.36839824995304   21.24997398128949
H         4.08844723725792   15.67846843937455   21.86114933444667
C         5.62472856764352   15.89787920871662   20.38908907142507
H         5.81543884295424   14.83405197438393   20.29942651357949
C         8.98372436268251   15.70826111205660   19.62831838701229
C         8.82456230747255   15.52728051521086   20.99647912348943
H         7.84188587358401   15.59028851786782   21.44001985773738
C         9.92307782725748   15.28379352333378   21.80195263918369
H         9.78640296791610   15.15144691072376   22.86553339915054
C        11.19145368799945   15.21478008078977   21.25346438395662
H        12.04704151703365   15.03119741391077   21.88659307022168
C        11.35798400667305   15.38294407218714   19.88858792472894
H        12.34449859489325   15.32851950714399   19.45086559938865
C        10.26247458751527   15.62307005960579   19.08277149736702
H        10.39606743767549   15.76071501088446   18.01903928457046

