81
CSD_code = OZUGEX | q = 0 | S = 0 | Stoichiometry = C32H44N2O2Pd | MND = 4
Pd        4.16941940765090    7.23614331749121    8.04832634042946
O         3.23499683535574    5.53321044280049    7.71809039804588
O         4.10508804444965    7.39463615645703    6.08852357575510
C         3.03760016347767    5.34501479982065    6.42030376412642
C         3.49925959471841    6.35078439875928    5.53404815141410
C         3.30140757984560    6.20540975132649    4.14723193467923
C         2.66182809250166    5.05876832175742    3.71329501080233
H         2.50101240188284    4.92991835741697    2.65661939182060
C         2.20908505116602    4.04989395162149    4.57220934220226
C         2.40022871561528    4.20336948170193    5.93181808828247
H         2.07426416658029    3.47030731310840    6.65104843928956
C         3.78874194103557    7.29302953837724    3.20053956271295
C         3.09327147040173    8.61186376151107    3.56618716396363
H         3.45652749978172    9.42127269030632    2.93477853597771
H         3.28583944000390    8.86322502751882    4.60549469733855
H         2.01782452900159    8.51824114906613    3.42776149645262
C         5.30781756733042    7.44278493698966    3.36301714930444
H         5.80734978320039    6.51936712262331    3.07623002850422
H         5.55517461446386    7.66060281795371    4.39821322133314
H         5.67997096333657    8.25005528310268    2.73405398130910
C         3.49234060406632    6.98815057657795    1.72980719265089
H         2.42253543822865    6.89522697151304    1.55642886505096
H         3.98634597775117    6.07285924105804    1.41144848177808
H         3.86394084453263    7.80367240577033    1.11137360366504
C         1.52162250431912    2.83149226680835    3.97147772590806
C         1.11082308357157    1.80621164091884    5.03179857337728
H         0.63300676252263    0.95458146934811    4.55019991714661
H         0.40304058825569    2.23673331649348    5.73579462329607
H         1.97861931243604    1.44360488666572    5.57728906961783
C         0.25528899912656    3.28196568400775    3.22934267823759
H        -0.25935143754568    2.42207527120300    2.80398006062667
H         0.49396963174025    3.97010330821236    2.42335043968252
H        -0.42072560340377    3.78557372112656    3.91705499204671
C         2.47838995419979    2.13902461474250    2.99035965546542
H         3.38993084553843    1.84234677152963    3.50476721765605
H         2.75026323176363    2.79726513745971    2.17016748865197
H         2.01057418055539    1.24936542076253    2.57231288785448
N         4.23734603342144    7.11400810326711    9.98472211110646
C         3.73785366421551    6.12368396308976   10.73177574878942
H         3.26748315780393    5.31529471781554   10.18211110674614
C         3.80472055010336    6.11168269712162   12.10540882239465
H         3.37845417040952    5.27799683393458   12.63495274488159
C         4.41874804996602    7.17411229128631   12.79085723729048
C         4.93566615190353    8.19355185387063   12.01296983667742
H         5.41887333531135    9.03832112521763   12.47576678794476
C         4.84479769998501    8.16083699379926   10.61808677906378
C         5.34683759582032    9.16911525076486    9.71996605003649
N         5.10434591588818    8.90243370077592    8.40351261830482
C         5.53549419750884    9.78186459420219    7.48994905318801
H         5.31907602093110    9.53115422850653    6.45739058925869
C         6.20979769489775   10.93074601365401    7.81903332990563
H         6.52789283743751   11.59119796142936    7.02976053390184
C         6.48042919683185   11.23575756761026    9.16784889968010
C         6.03114518758557   10.32940222188649   10.10530768279840
H         6.20014922800477   10.49372219935360   11.15510646124474
C         4.52582516503096    7.23752725460252   14.30341705285264
C         3.90146907393433    6.01727611365388   14.98415851931988
H         2.84080085836053    5.94212424741160   14.75707541694106
H         4.00720764778210    6.11171011526389   16.06271827451599
H         4.39934525287513    5.10046247398054   14.67780745605743
C         3.79727316698082    8.49436522733502   14.80075497067436
H         4.24145186076857    9.39885530038220   14.39441866600985
H         3.84741808801432    8.54845934885606   15.88579784019430
H         2.75082838795511    8.46519621124797   14.50499529936497
C         6.00853425772891    7.30453125967048   14.69641092553366
H         6.53757472967224    6.43100296923990   14.32176684978100
H         6.10530062873512    7.32792914510501   15.77939986676357
H         6.48759971037391    8.19258280592496   14.29356824021553
C         7.23346651879941   12.50412061876844    9.51871127442439
C         8.61565121795280   12.45804070384083    8.85183235186828
H         9.17416120967615   11.59199434766373    9.20067541512426
H         9.17857879026202   13.35467232542719    9.10060595991437
H         8.53263388873908   12.39748581249507    7.77054868888082
C         6.44272387896435   13.71212461728226    8.99687031176169
H         6.32781648389379   13.67528520026152    7.91747995669277
H         6.96044070794626   14.63368410411354    9.25268907407925
H         5.45189769054763   13.73697623569364    9.44552398949784
C         7.43028239241981   12.67079252503450   11.02755533232224
H         6.47432396622803   12.73148483508043   11.54285806703490
H         7.97390965603427   13.59278365640078   11.22120055118032
H         8.00975130283200   11.84809890374475   11.44038950939207

