69
CSD_code = OZUHOH | q = 0 | S = 0 | Stoichiometry = C22H32Cl2N10O2Pd | MND = 4
Pd        5.12364273610083   18.05783182481444    7.32838194444633
Cl        2.95865650342240   17.81529398030035    6.71905151887375
Cl        4.63224530741617   20.23338267427418    7.70185289656329
O        10.29939531308993   22.67397991162717   10.24753249728292
O         2.39157678722104   11.25242025049618    5.65537175574106
N         7.12858637421790   18.08458778530313    8.00496324928834
N         7.11173311259335   19.72207608077629    9.76312315434442
N         8.25339024127161   21.67512193519930   10.58349603027284
N         8.83566445705392   22.22888096550513    8.52820318019069
N         7.68031437516216   20.30052950998061    7.67116439614402
N         5.70799809971538   16.02919551966305    7.17438065321274
N         4.18076080226324   15.24433477399426    5.63246006681379
N         2.74605131571643   13.42547029600381    4.98567301392523
N         2.26337972164397   13.03659028940967    7.10371485942211
N         3.72127860730521   14.82533367227736    7.78839964810217
C         7.27598326640959   16.90808937734935    8.72789893630582
C         8.21552157941181   16.73061229451572    9.73696780367282
H         8.82874038787852   17.56698566639283   10.04171331191243
C         8.38074061974330   15.48378585399874   10.31907773788208
H         9.10774278468521   15.35626090605721   11.10684417004734
C         7.63373789058569   14.40380970782317    9.88291476619498
H         7.77636320848234   13.43134204296525   10.32937866226758
C         6.71245255230750   14.55724015104851    8.85899595053828
H         6.15959954123973   13.70794065949826    8.48283776555323
C         6.51458532023725   15.80679233065124    8.28291124994900
C         7.29803013116910   19.28643487436071    8.47904420060913
C         7.17146100687352   21.17743314721597    9.78884564863226
H         6.20662312044099   21.58598329776261   10.11780865781404
C         9.25819175054113   22.22823745263118    9.83210522185462
C         7.57180519477726   21.57604984703226    8.34823725817102
H         6.84879862561668   22.22213407689495    7.83177135032649
C         6.17406420175949   19.02291962297592   10.61421954810426
H         5.31401006689767   18.65076288334318   10.01914870872809
H         5.80265125987290   19.71040242454898   11.37028023745300
H         6.65687992297990   18.17445137684540   11.10276482143713
C         8.34527482191872   21.47924627082227   12.00364804010718
H         8.39880922576610   20.41688265993232   12.25456074683230
H         7.48443863492694   21.92739398658590   12.50521912888513
H         9.25695926811696   21.97368037869463   12.33451024835981
C         9.61199125037549   22.77851296176336    7.45150820440199
H        10.46188192749106   23.28896039933860    7.90180597912872
H         9.01600891040678   23.49474760503840    6.88141166390324
H         9.97771776466778   21.99517293858530    6.78328111712599
C         7.65546129998706   20.15616352604186    6.23790987535409
H         8.52551090407658   19.59077099860220    5.90081714219848
H         7.65296673694454   21.14230796402700    5.78163543307959
H         6.73962675197826   19.60923329474598    5.93038351541609
C         4.60293154798304   15.39227204690113    6.90790038678430
C         2.83004833697583   14.72453417858078    5.58689459905819
H         2.15985246249299   15.44466186573598    5.09793006326049
C         2.47525823948833   12.43264110427488    5.89085297500838
C         2.50864906915255   14.44683131337340    7.07486251890209
H         1.65276915812582   15.01407608029420    7.46433560080042
C         4.78072876237410   15.99757410096063    4.56098078266128
H         4.96645130804746   17.04063517706869    4.89235080105864
H         4.10356425820910   16.00763008664366    3.71127370888749
H         5.73388847224367   15.55107426404151    4.27382666099890
C         2.96720991529712   13.17580510078722    3.58826928759244
H         2.73787824499842   12.12583275328556    3.41344778466806
H         4.00610717252635   13.36681467102793    3.30892336418103
H         2.30642590185573   13.79974598293741    2.98218888252192
C         1.99274801544332   12.30709934021827    8.31146235552624
H         1.84043253618110   11.26730629229269    8.02736858092865
H         1.08948207286437   12.69030094924031    8.79166724317388
H         2.83064953664470   12.37180293595179    9.01027247194542
C         3.63181960198050   15.35449590559456    9.13183062990033
H         3.78974877174879   16.45351075438147    9.12681747141642
H         4.38264168376573   14.89436968450807    9.77697615233541
H         2.64071124880282   15.14721496432031    9.52794171151722

