112
CSD_code = OZUQIK | q = 0 | S = 0 | Stoichiometry = C40H65ClN2O3Ti | MND = 6
Ti       -1.72584199341697   -2.91301949426269   10.60187223689084
Cl       -3.87702089276188   -2.23517468685428   10.75358178660066
O        -1.81361971925026   -2.66126396203703    8.85259012407461
O        -1.50234306409362   -2.61440047974909   12.34044066259636
O        -1.86077007711438   -4.62156239455965   10.60536864558468
N        -0.73038643975286   -0.84258523840676   10.41604693401226
N         0.63128686442213   -3.29620674305821   10.32321098477286
C         0.42821193268203   -0.95253641475618    9.53232749013076
C         1.38318594079933   -2.08296178038534    9.95736576195352
C         2.28604048133984   -2.47777377015840    8.78213975646934
C         1.43627081177300   -3.51853801189320    8.06260141455980
C         0.78032588830444   -4.26964239753510    9.21915648750281
C         1.03204393252965   -3.86702280538096   11.61357072418666
C         2.51144659581432   -4.23938381758010   11.77396343379408
C        -2.36163777881148   -1.73303668217610    8.08845746331003
C        -3.01986460884231   -2.04849452588242    6.87197043198878
C        -3.47478375737630   -1.01188751759277    6.07863029896292
C        -3.34187682893203    0.33248977066734    6.41642788636443
C        -2.75227786812821    0.62167499877203    7.63333380378341
C        -2.27259784484471   -0.37991700929751    8.46508594959247
C        -1.73898307595036    0.03995476485184    9.81430198467320
C        -1.84516833194929   -1.59660685379932   13.11483434785856
C        -2.62096789090321   -1.71877629304264   14.28988452173440
C        -2.99956290927500   -0.55733540463815   14.94824808382418
C        -2.62295454479935    0.71712448062013   14.54470291168131
C        -1.76494192162294    0.81019780885674   13.45735885014402
C        -1.36875024150689   -0.31696549708860   12.76594349700209
C        -0.31909050012430   -0.24029057736450   11.69100288579141
C        -3.25676663084706   -3.50530516464051    6.48724574958771
C        -4.02283380904231   -4.19420817056944    7.62552805128230
C        -1.90970066468244   -4.20754023188444    6.27329302764247
C        -4.07985467411264   -3.66030763644473    5.20353016956471
C        -3.86206080598887    1.39878728201534    5.46437982602282
C        -5.37171116196120    1.20400745512938    5.26723988895834
C        -3.14148373584640    1.26736653210985    4.11493815863022
C        -3.63080892425591    2.81830786339846    5.98964978601864
C        -3.01459258553972   -3.09252375305577   14.82076232431223
C        -3.98444967966533   -3.74571472821262   13.83156721520038
C        -1.75102686573586   -3.95602637564986   14.95819862685976
C        -3.69023630691329   -3.03728692878692   16.19548637326711
C        -3.07831949999384    1.98346788592990   15.25421847191570
C        -4.04919165099153    1.70285873634799   16.40413020067280
C        -1.85398477163476    2.71027434624415   15.82920708768832
C        -3.79192064163824    2.88989107726825   14.24130296206746
C        -2.32645148844825   -5.79047353019635   11.18090021767036
C        -3.82051170938693   -5.98635673035841   10.87695967789017
C        -1.52230748516789   -6.99561125126877   10.66376736560605
H         0.98953547262770   -0.00052218093775    9.50986766934044
H         0.06335243684902   -1.15046341543154    8.52202099451153
H         1.97763673245244   -1.73999214743004   10.81033121149117
H         2.54187064455743   -1.62622704081018    8.15368882123811
H         3.21046118902044   -2.92912198293225    9.14624695798123
H         2.02399617422394   -4.17919623275372    7.42750996162232
H         0.68037082506562   -3.03125987583414    7.44705701902350
H        -0.20222975976434   -4.67000404327039    8.95966280749269
H         1.42148395136926   -5.10179559776078    9.52896183719367
H         0.41476334508467   -4.75773778201773   11.76662321590928
H         0.76798336101938   -3.15031101020462   12.39744847379190
H         2.83471614201016   -4.96853485612769   11.03504453446464
H         2.65474641595616   -4.67768948830744   12.75847289540920
H         3.15791913041357   -3.36766589868188   11.70032204492561
H        -3.96325362712415   -1.25068548495801    5.15007409497144
H        -2.65880146916727    1.64136093374512    7.97337790083930
H        -1.31498025783906    1.05755177681007    9.71689639264496
H        -2.58220146455646    0.09900045195237   10.51908750137850
H        -3.61920423277689   -0.65263831212452   15.82042832284464
H        -1.38165946489586    1.76957303613242   13.13848971114618
H        -0.02687245414952    0.81315267879566   11.52935276179820
H         0.56432990369953   -0.77751696414387   12.05676242844006
H        -3.43564359030335   -4.18572593180543    8.54508469517338
H        -4.24413656633752   -5.22620126572373    7.35566653817452
H        -4.95944721436550   -3.67366371141063    7.81549446909813
H        -1.33488388275752   -3.70270983741623    5.49799331085914
H        -2.06618525289698   -5.24135167195032    5.97005556465057
H        -1.34369625669084   -4.19964850780533    7.19961611590824
H        -5.05394920132726   -3.18802953100300    5.30381891538647
H        -4.23961830750908   -4.71946137925357    5.00923533660583
H        -3.56121627248577   -3.23971854530405    4.34440529095547
H        -5.88271461714811    1.25714672752389    6.22582284580066
H        -5.59003040390006    0.23873727363942    4.81962314424743
H        -5.77049807447691    1.97998834319296    4.61652799720886
H        -3.49701164928037    2.02786854005161    3.42239395972263
H        -3.31480597926748    0.29258076084012    3.66806233503693
H        -2.06901926920193    1.39511556295187    4.24783914855248
H        -4.01029111471811    3.53953219028225    5.26817477599033
H        -2.57061331359263    3.01339425644518    6.13472525656268
H        -4.15452099621830    2.97517494355770    6.92935201403505
H        -3.51950268173248   -3.81490184351962   12.85057566907684
H        -4.88599034099571   -3.14463866189297   13.73530206320548
H        -4.25983179593595   -4.74368221411033   14.16955966066640
H        -2.00957459612573   -4.94227103156177   15.34022570376719
H        -1.04879659211783   -3.49040968974101   15.64837980544815
H        -1.26657138209451   -4.07406910639569   13.99148500533964
H        -3.88398849498537   -4.05278137458274   16.53637585297165
H        -4.64379106735492   -2.51767438376366   16.14676630646666
H        -3.05239610778889   -2.55094727943087   16.93068666401251
H        -4.36261418686661    2.64408006186910   16.85216960885918
H        -3.57705674922000    1.10421815105653   17.17957696025805
H        -4.93683877717440    1.18796654991388   16.04523483010598
H        -1.15742499589778    2.99173104169494   15.04425994551970
H        -1.33139508444825    2.06563494789895   16.53289486329509
H        -2.16274249333507    3.61388135332659   16.35117095069480
H        -3.12486300263445    3.18524146797394   13.43632587051839
H        -4.15483813968564    3.79145623269002   14.73119257762547
H        -4.63927529126196    2.36602694983966   13.80493814667402
H        -2.19232805622145   -5.72508749463562   12.28069549102200
H        -4.35034748182108   -5.04752601489009   11.03681937835377
H        -4.24114008002337   -6.75246344671273   11.52352556716929
H        -3.95061819111320   -6.28377290948300    9.83868730944499
H        -1.60039437804685   -7.04255048010850    9.57887256913621
H        -1.91338087660872   -7.91589700555243   11.08934386226334
H        -0.47173925446215   -6.90123474405127   10.93379152497538

