38
CSD_code = OZUXUD | q = 0 | S = 0 | Stoichiometry = C17H16MnNO3 | MND = 9
Mn       11.61078697876140   -1.45274773265660   16.58066155710535
O        12.80752732053903   -3.99577160352228   17.38885725372776
O        14.13969316075296   -0.16514921942186   17.27903279893785
O        10.23666399104911    0.10506836813859   13.76049832255177
N         7.73773377709559    3.04301959189538   13.93270890599277
C         9.86742606262248   -0.19042627600624   16.14261684403248
C         9.43281773677117   -1.52980961548318   16.33527087764577
H         8.81954867853521   -2.09583511375443   15.64825665262480
C         9.75358139305248   -1.91356029112665   17.64871561022181
H         9.43956101881273   -2.82532237642018   18.13795991056707
C        10.42044714364416   -0.82626975471636   18.27391488329296
H        10.66263178538107   -0.75606703787064   19.32657286118581
C        10.46962399816687    0.24325707571404   17.34076249210881
H        10.78302536898692    1.25566095240604   17.55645259212751
C        12.34180714669045   -2.99292542509258   17.05783435710469
C        13.15240650443206   -0.68937419014264   16.99280276662561
C        11.82907056570745   -2.26419675534110   14.48993876976910
H        12.49515500282177   -3.12096134040847   14.42509562766335
H        10.83248195289840   -2.42039740765514   14.08977431544193
C        12.36049954297654   -0.98432664095776   14.43620145976814
H        13.44566499311434   -0.87190394522600   14.38212047891982
C        11.63808103520421    0.16896431034151   13.76293179905912
H        11.98074179640806    1.13022248135882   14.17642855000473
H        11.92747432258650    0.14079094174278   12.70293192261387
C         9.62342214446457    0.65201900686586   14.92460556782534
H        10.02982973165067    1.66445384594240   15.10030885017376
C         8.11812899120732    0.77544516157620   14.62806550802046
H         7.73874599951534   -0.19939668369944   14.32094243369176
H         7.61134925542751    1.10401677113261   15.53605073280949
C         7.90274973976887    1.78644372524369   13.54099127336405
C         7.92831295433661    1.42236619713009   12.19851802896994
H         8.07930878885508    0.39112923868317   11.92106666277298
C         7.77015177385664    2.40786081622723   11.23995272276947
H         7.78661547568217    2.15840445347355   10.18851800337143
C         7.59074693316617    3.71955663194584   11.65170136761569
H         7.46128757996192    4.51768264934289   10.93741573217520
C         7.58414228980383    3.97880207970739   13.01269103155552
H         7.45165706529278    4.98397711063400   13.39163047579235

