35
CSD_code = OZUXOX | q = 0 | S = 0 | Stoichiometry = C16H14MnNO3 | MND = 8
Mn        8.45502892678273    9.11184021811336    3.64461900425954
O         6.95987421474844    8.14114508793232    5.96670645819742
O         7.75164521469495    6.73252215552887    2.09171701654393
O        12.01301539048862   11.18065884095273    3.01492970579182
N        10.25640943128078    8.45587337021293    4.26894846847067
C         9.61908063190946   10.85358601692304    3.40916780260492
C         8.47927015234312   11.19628312221478    4.15755281236464
H         8.47652991184601   11.68271517242613    5.12358187826950
C         7.34571192461490   10.97319040887337    3.33466220195290
H         6.33127681954651   11.27186909674860    3.56320619552587
C         7.80205150869657   10.50306176553287    2.07980477518035
H         7.18920617823902   10.36916529134660    1.19860596852640
C         9.21119159694130   10.40700565513942    2.13199118277452
H         9.87050641105185   10.20540018884946    1.29887839792629
C         7.55312965046986    8.50746590532328    5.04367178346539
C         8.03036404819703    7.66008094130046    2.72421980775392
C        10.52101552945345    7.18273054298155    4.62618663732429
H         9.67034243849564    6.50826737072828    4.62723263430194
C        11.77714632069964    6.72865142922244    4.96908634387903
H        11.91296569813630    5.69406821174627    5.23986079559357
C        12.84904879911559    7.61142877214382    4.95147246869530
H        13.84706761556444    7.28744550890919    5.20111207977052
C        12.59048646991012    8.92554791106782    4.61055140187456
H        13.37270256904987    9.66717389354828    4.57685976982597
C        11.29900380997748    9.31277899086997    4.28707076496719
C        11.02366248724934   10.76421919251231    3.93690020658251
H        11.11184404441442   11.36771613384291    4.86478596061681
C        13.00440452902142   12.87345121406730    1.69872899954433
H        13.10489976869325   12.12977704435697    0.92129090436426
C        11.95126418389353   12.55945283819160    2.71302655641148
H        12.09298359364121   13.15653436897961    3.62801169947362
H        10.95787113399946   12.80870115185611    2.29906675445472
C        13.76003166768219   13.95372804979779    1.72051929853863
H        13.66952183704019   14.69617786285107    2.49675868975600
H        14.49234549211458   14.14768627490763    0.95621457442058

