42
CSD_code = OZUYAK | q = 0 | S = 0 | Stoichiometry = C16H20MnNO4 | MND = 9
Mn        6.01021148125312    2.36396033924644    1.56488297712364
O         7.06575094172581    4.39956064643396   -0.25033443394727
O         5.08086682500700    4.52202778876052    3.30150558764727
O         3.87805641738192   -2.09564453872728    0.51823593268469
O         2.31291793135056   -0.53144683794605   -0.01992797906842
N         3.63639097062100   -0.21194852740037    1.74307911273629
C         5.94525168549829    0.30837658339097    2.37107346712664
C         6.72950660554535    0.31758023438940    1.18594161641146
H         6.58722954235886   -0.34735489156317    0.34527102958618
C         7.83190536682432    1.16345478118745    1.39082444911347
H         8.67793895413402    1.27701200918423    0.72720773590168
C         7.72307923307337    1.71784192757593    2.69529191383085
H         8.49250503442031    2.28288502522072    3.20610080076120
C         6.56189634746640    1.16597057804730    3.30256917848330
H         6.28401225943954    1.27368264143499    4.34246288520624
C         6.63328674871893    3.59956261432491    0.46045054118079
C         5.44154444828408    3.68277914440185    2.59598252947046
C         4.42672057559824    2.03489277044535   -0.02519034722666
H         4.41594187598947    2.81614841527797   -0.78074395062473
H         4.56418808491440    1.03000443768424   -0.40960799686499
C         3.71484537949785    2.21920366198696    1.14722930350140
H         3.20696668012920    3.17459378311830    1.29587143226223
C         3.04705126055267    1.09278297237049    1.91473294489944
H         3.02937027711598    1.32485584912694    2.98532311311077
H         2.00944555038703    1.04543671872526    1.56475474592718
C         4.74819668084019   -0.56092355720485    2.61280660189078
H         4.99324405817462   -1.60722976468059    2.40186292620997
H         4.41989236400693   -0.47306468664087    3.65600414167880
C         3.31756480567457   -1.04025171373583    0.71128980176692
C         1.78886106215376   -1.26134815315007   -1.15607811745778
C         2.87696968620013   -1.44612827109913   -2.21351844532740
H         3.67649513477804   -2.07014559151995   -1.82329481184173
H         3.28674883320692   -0.48003225665814   -2.50311245688318
H         2.45480906516749   -1.92593942994762   -3.09186118813268
C         0.67681042741249   -0.35616087693134   -1.68755008971425
H        -0.08685690486989   -0.21668795853761   -0.92658982478292
H         0.22306494174751   -0.80419391875304   -2.56623910112957
H         1.08241185063650    0.61725928592144   -1.95230064315660
C         1.21977627492700   -2.60761870236180   -0.71006708217161
H         2.01333709259908   -3.24448048833239   -0.32899573692499
H         0.74521686036200   -3.10063245836730   -1.55372606722392
H         0.47987728969469   -2.45943958469980    0.07408350397061

