91
CSD_code = OZUZEQ | q = 0 | S = 0 | Stoichiometry = C34H40N9O7Y | MND = 8
Y         0.68870538973450   13.99337938727390    7.81241197921922
O        -1.16943401128787   13.55284395261382    7.21264209752754
O         2.66034590760897   14.21239238112136    7.42410263292531
O        -0.68634945084787   15.29367604191400    9.08436621418774
O         0.20634336742678   15.99828970205572    7.29190038667048
O        -1.63145787915858   16.82344255123001    7.95637760793039
O         0.04343517362181   12.57975372879345    9.56276714614337
H        -0.93618745740346   12.55021735957217    9.38203396954738
O         1.94408879137623   14.84478614154587    9.83602540486771
H         2.86569471440921   14.57139781037931    9.58865090908830
N        -2.62934927492430   12.18733026143278    8.94264715577909
N        -3.28355138984023   11.80700194130942    7.86692685829319
N        -4.48129143925323   11.31896527495829    8.05769933699374
N         4.53339768216059   14.17991217765086    9.22846410630988
N         5.35265297979175   14.26104574093611    8.20512325185633
N         6.60736118694334   13.97963575406369    8.44633125347901
N         0.97506718517771   13.85213116788465    5.24222878082891
N         1.26653064137584   11.48938939832153    7.02252918315134
N        -0.74105064046617   16.04221270164710    8.11020205672962
C        -1.74348021093556   12.85105928526419    6.29077876232203
C        -2.78750112947622   11.93522784282736    6.56940064027698
C        -3.40162465871991   11.20130695436362    5.55770269370429
H        -4.20050849526515   10.53083534623749    5.83360669733768
C        -3.00883922951986   11.33460080946456    4.24170480164958
C        -1.99286993823954   12.24621026263442    3.94578005470069
H        -1.69301484178530   12.37590827448082    2.91430671810637
C        -1.37231809249125   12.98954060202304    4.92640480487229
C        -0.33863912181265   14.02828271296232    4.59089289571631
H        -0.72512287730794   15.00352354814461    4.91271198255819
H        -0.20517848933315   14.05468385465400    3.49579932581257
C         1.80088779858576   15.00298722013508    4.81477802023003
H         1.34215743180755   15.90552626757177    5.23510705827684
H         1.77274988980427   15.08383270456927    3.71505042968957
C         3.24355968439701   14.95418156149804    5.24360611865049
C         3.56158975054572   14.59573907412145    6.58161010579050
C         4.94020602696689   14.62326641072496    6.92418141714397
C         5.92080910791514   14.98084579963900    6.00287776115814
H         6.94823676819524   14.97742395138348    6.33175004513788
C         5.58657389947790   15.32824688324775    4.71127326766803
C         4.23704689670695   15.30568649662112    4.35465879253139
H         3.96348413758308   15.57919981568429    3.34425712809338
C        -3.48898368221017   11.95505745001990    9.95170144312612
C        -3.40062249769344   12.17664642596933   11.32973102073435
H        -2.52695436098526   12.63300023354749   11.76472691001038
C        -4.48063951317176   11.81693487076122   12.09318493743553
H        -4.45297184602251   11.97831866572592   13.16097356562983
C        -5.63886723793880   11.24607256584557   11.53185767154247
H        -6.45520082857055   10.98493607624957   12.18911659994275
C        -5.75658567945979   11.02724120971840   10.18500058356364
H        -6.64353978752149   10.60240550645769    9.74347562237497
C        -4.66973856218664   11.39030364630210    9.38271467741936
C        -3.65772584746419   10.54423520349198    3.14573365512570
H        -4.39273563374194    9.85516624521052    3.55178072870838
H        -2.91341216188971    9.97464128954425    2.59034319685497
H        -4.15851125080695   11.21012894129633    2.44401937729636
C         6.62762422460190   15.73179436822723    3.71132627410147
H         7.62568134494918   15.57913731584881    4.11220992216613
H         6.51638380509930   16.78456467774689    3.45273808164670
H         6.52529877181611   15.15189319067256    2.79536786412478
C         5.31462745252988   13.80724287950037   10.25688483646036
C         5.02467885929319   13.56468180281990   11.60222980691353
H         4.01779837027768   13.66487026561566   11.97710976941224
C         6.07249854266015   13.20169656266635   12.40850724294315
H         5.89590353133539   13.00663714181576   13.45618119550275
C         7.38475028567556   13.07441744487806   11.91438466787031
H         8.16644564263121   12.78518225055673   12.60138604512596
C         7.69332477792173   13.30694227345128   10.59924404750845
H         8.69700728252984   13.21209241360021   10.21733534730665
C         6.64350890547590   13.68085810647432    9.75448319038359
C         1.61577868710573   12.60921672465463    4.79778718315441
H         2.69442730691182   12.72337560198746    4.93053974498228
H         1.42686991603725   12.44032215772754    3.72506977079935
C         1.14191161118781   11.37216586015612    5.56182308261764
H         0.09130462232568   11.19471319858249    5.32767564414120
H         1.71962312926420   10.50491122342355    5.19972367957655
C         2.65290344461283   11.23115049771109    7.42568454056073
H         2.95372631688030   10.20496016300887    7.16563934552901
H         2.74775541754636   11.36669491158664    8.50274367049728
H         3.32871404073683   11.92511332340077    6.93420876927170
C         0.43420431214606   10.44004747509059    7.62015035325174
H         0.70193114989521    9.45136630221271    7.21934302236271
H        -0.61587544699891   10.63021547400445    7.40745950905862
H         0.57858100721903   10.42869260143352    8.69764716365534
C         0.19787275865343   12.75272901231613   10.96692785788476
H        -0.26074416793523   11.91413385352177   11.50329784894104
H        -0.24455928064331   13.69465855336946   11.29891325908151
H         1.26629875004437   12.76974382898008   11.18059206363588
C         2.02385058438837   16.22046522665349   10.17440323027457
H         2.76008286236293   16.37785801140225   10.97034505027741
H         1.04250536958637   16.53040156567526   10.53491112069489
H         2.30113891795635   16.83314625615304    9.30889595557558

