73
CSD_code = PABGOQ | q = 0 | S = 0 | Stoichiometry = C30H40NiP2 | MND = 4
Ni        3.08097029989494    7.93668042495895    2.94190761942149
P         3.14770269866029    9.46783289285932    4.54012368217017
P         3.06861278852022    7.97191770705946    0.72125700538571
C         4.19003590348653    8.96289286657251    5.97677241688952
C         4.27996587186840    9.76582791499356    7.10927623087336
C         5.11260076072343    9.42834614585273    8.16044113236767
C         5.89052499744135    8.28443301439316    8.08634886627485
C         5.82026288811031    7.47862122458841    6.96587004552531
C         4.96748627483221    7.79605593337095    5.91438208575014
C         4.89646931864559    6.95251531470994    4.71030247222486
C         3.63511078525401    6.45357420613704    4.30392987425563
C         3.49471066721537    5.89768035442275    3.02642006736352
C         4.61652331358453    5.82156009588266    2.16745680077957
C         5.86350900398719    6.17802864519710    2.63845761858988
C         6.00049386438624    6.75102053457812    3.90586935409810
C         4.36412193609196    5.48422767237544    0.75514447929197
C         4.86835890998275    4.32072874784712    0.19003104081396
C         4.56539143973878    3.98409456222106   -1.11674586100173
C         3.73982143609263    4.80798311419587   -1.86202830216756
C         3.25363860212055    5.98306521929521   -1.31530979686648
C         3.56911243896036    6.35285177502148   -0.01248579056460
C         1.55026375959612    9.93230314109296    5.40544356503510
C         0.46357969228153   10.07436085547937    4.34246862453704
C         1.14778614640756    8.82834737088899    6.37965991343985
C         3.97236701949330   11.11746206212386    4.22107867308690
C         5.41512438665467   10.80656201653655    3.83243469656146
C         3.27143787953655   11.84334234126913    3.07976697495101
C         1.36829973567615    8.22792913869965    0.00432274291219
C         0.92591328453475    9.65531302467555    0.30561123097839
C         0.47878761099806    7.22488227243367    0.73402579962895
C         4.18472273323556    9.12264778459334   -0.24914551208836
C         4.04355973928691    9.12190470951395   -1.76491904986435
C         5.61942581331074    8.80041909875360    0.16161623705905
H         3.68804494617425   10.66757595564918    7.17577872633574
H         5.16058923332114   10.06088317686941    9.03532900341647
H         6.54989760492248    8.02298532001857    8.90133209149414
H         6.42178099499658    6.58272363720150    6.90058209408711
H         2.84601688292101    6.35696780074863    5.04540727371142
H         2.58183467309512    5.37728759136000    2.74301342226339
H         6.72702865601005    6.08833658084267    1.99445924853113
H         6.96912610205724    7.10576364125277    4.22966064188801
H         5.48985466925303    3.67164409799122    0.79101735888947
H         4.95956941668367    3.07535126412101   -1.54802736823881
H         3.47897723550559    4.53968302390934   -2.87596609777876
H         2.61221921973259    6.60820937389816   -1.91749342253040
H         1.67362033190090   10.87904485757802    5.94271200365159
H         0.45232494515838    9.17497872507079    3.72319570897902
H         0.64073103673095   10.92932035137640    3.69619804975771
H        -0.51682342579877   10.19017028479223    4.80294056106321
H         0.18860022900590    9.06264475620499    6.84034698761578
H         1.88492687424092    8.69689936845770    7.16872682376174
H         1.04378399458733    7.88631530943094    5.84244323811493
H         3.95518995766259   11.73326917463540    5.12637215690097
H         5.41640404682334   10.07771446737532    3.02057129827846
H         5.96570882869951   10.38465491498755    4.67098554945093
H         5.93152980372850   11.70373746394494    3.49476684865213
H         3.88413965072983   12.66647655330277    2.71482286897933
H         2.31407552792545   12.25057104850712    3.39535765571310
H         3.10466695031685   11.14302548578221    2.25959099666900
H         1.32993374478682    8.04728975041505   -1.07286052321631
H        -0.13122022536200    9.78776643488908    0.07944817064509
H         1.49439101599142   10.37715777011996   -0.27706907799437
H         1.08368048037229    9.86309866892727    1.36448179125584
H         0.63808699771498    7.33050380619691    1.81323032651002
H         0.73284630305380    6.20466930854786    0.44914326254567
H        -0.57533362503014    7.39553244453937    0.52061980308633
H         3.93509270322794   10.12224054670854    0.12971593270809
H         4.69816744102516    9.88299402367411   -2.18896228861446
H         3.02521217866232    9.34542024662825   -2.07393075762152
H         4.33702675410774    8.16044304973836   -2.17932223664463
H         5.93596292155589    7.85574766943841   -0.27788008374386
H         5.68660956947126    8.70712609843337    1.24617890778397
H         6.30463335320595    9.58096377387381   -0.16530188447041

