129
CSD_code = PABJUA | q = 0 | S = 0 | Stoichiometry = C66H58Cl2N2Pd | MND = 4
Pd       10.31955761442781   14.27058219634079    5.73247390711547
Cl        8.10221049349492   14.92896033217120    5.65300858652719
Cl       12.53713302216982   13.61419036479359    5.81626496098633
N        10.63001991997204   16.30439854747342    5.80842879463184
H        10.13742992426376   16.66953309013667    4.98590937908171
H        10.13175572473945   16.62471731577209    6.64588310672615
N        10.00876098731658   12.23756151766173    5.65930013339361
H        10.50634428135200   11.91403720789325    4.82271559456423
H        10.50133970122446   11.87418889708562    6.48270995077599
C         6.67917660760024   11.23824833408599    4.43170935353309
H         6.15113437309896   11.11952637456196    3.49698885742321
C         7.97619254760680   11.72156589903362    4.42654913211020
C         8.64650539648012   11.84642602505083    5.64604230748217
C         6.66253812860093   11.22466456158039    6.82746235395934
H         6.12335805834741   11.09585768822899    7.75447767287270
C         6.03339019785232   10.93332723304788    5.62389851894027
C         9.77346996780980   10.02889711075808    8.51682153986661
H         8.87489972378256    9.53272288631762    8.17742256697320
C         9.82219943576902   11.41867631762737    8.53217530855908
C         7.96047460724567   11.70642170668179    6.85471968988349
C         8.63637099484002   12.24707508080208    8.10035897584270
H         9.02152211874107   13.24997056601473    7.80705848239209
C        12.67988559922223   16.83771342446373    4.61623888641796
C        12.66076324098568   16.81965623881790    7.04395922299072
C        13.97725634917852   17.31979756009030    4.64598423478821
H        14.51805841372349   17.45052732056470    3.72020655113413
C        14.60552386514590   17.60894606825364    5.85101277660764
C        13.95836258024371   17.30247191421229    7.04137063907472
H        14.48437432399293   17.41979162200148    7.97737552270103
C         9.87158774984597   11.48595494183252    2.77619256567176
C        11.99210109692450   16.69579166460065    5.82389716163595
C         8.66418690438712   12.28707129815741    3.19826970987918
H         9.02594470718231   13.28925347473682    3.51321350595630
C         6.81276930574117   13.60395374979164    9.11321203141753
H         6.89684459998992   14.25005360099717    8.25078193806555
C        13.00555633490478   16.04960079104444    2.26068182733740
C        12.00654413082932   16.29898492326494    3.36840059958843
H        11.61617382922364   15.29788128074367    3.66059859184890
C         7.68444958883197   12.53145411909628    2.07245046739990
C        13.12283843191557   16.87198406795815    1.15027811638159
H        12.47615634093476   17.73030931443725    1.04079689848543
C        10.76609855813158   17.06361062879274    8.69373028441335
C        12.94885280286567   16.01346361693517    9.39873490765217
C        10.82665504273541   17.13210389043519    2.93023432400490
C        10.86871682054137    9.28802354972440    8.92487488195565
H        10.82072175083272    8.20889560375394    8.91037533138499
C         7.64387989821980   12.49248724418310    9.21467043283582
C        11.97015917984227   16.25715020648189    8.27191766693766
H        11.60533926439927   15.25547689557474    7.95878983394917
C        13.79722224606883   14.91510048621091    9.29759130049641
H        13.73281304165000   14.27620807259522    8.42823478954142
C         6.83051494700670   13.62495709795011    2.18047999033311
H         6.89216915850317   14.25924707996935    3.05335618240697
C        14.06527416271559   16.59576095741455    0.17343683195010
H        14.14651317669497   17.24268101606912   -0.68818846170245
C         6.67102875466234   11.98666283304507   -0.03826387355306
H         6.61325961851937   11.34408807960308   -0.90501757307639
C        12.02246449785988    9.92542423359074    9.35042693327558
H        12.87503694798857    9.34384129279248    9.66778709868129
C        10.88521389235651   18.52162537477978    2.93685046419152
H        11.78608869089217   19.01336034276543    3.27661312985664
C         7.59761267871264   11.71492873785949    0.95490510069350
H         8.25586262523284   10.86469057258793    0.85189418218078
C         9.83799071610717   10.09600776488444    2.74153187651542
H         8.93485996455694    9.57934167546921    3.03489811293086
C        16.00436040343401   18.14599215850637    5.86386941104813
H        16.71774087110453   17.32373589431800    5.80277465010483
H        16.20081125593594   18.69502643028382    6.78171758680346
H        16.17530743539622   18.80164834999978    5.01297050839881
C        12.08192578980266   11.30899374299817    9.36332130184016
H        12.97924267635954   11.81404959470119    9.68714949054790
C         9.59772522082061   16.41228971110638    9.07901845558937
H         9.55399647207132   15.32960526619313    9.06030697323242
C        10.98850919147534   12.04994901396599    8.95441934450553
H        11.04296959603099   13.13240610846317    8.95664301366529
C        13.84521056774332   14.94617358407307    2.37886899614327
H        13.76010301322924   14.30761259586235    3.24680711482068
C        13.04132855310536   16.83825787083738   10.50971002636521
H        12.38819109828783   17.69324134562260   10.60618286797127
C         8.53394904276037   18.51839204465848    9.49573730237420
H         7.66949216269941   19.08511869857433    9.80773773730617
C         4.63486618526678   10.39545036811966    5.60747785843663
H         4.41812228720965    9.84862674516652    6.52202986149228
H         4.48334275858404    9.73744336921255    4.75463970370023
H         3.92263084878116   11.21707491619744    5.52779049404153
C        11.04540643318168   12.14292892769467    2.41735153046939
H        11.08891819071571   13.22538850568320    2.45579384102131
C         7.52676677413188   11.65982077820515   10.31746744405072
H         8.16594161686167   10.79428086410280   10.41334738091169
C        10.95389109599725    9.38096286721995    2.34350657139735
H        10.91766003774049    8.30163799934372    2.31817657314093
C        14.89970693854535   15.49943232285645    0.29787091765029
H        15.63446288313547   15.28762389351822   -0.46509052298281
C        10.79977805696188   18.45403851248256    8.70514867732201
H        11.69960524309944   18.96539500760946    8.39274857601660
C         8.48866871108859   17.13435068690340    9.48017409606309
H         7.59081355641923   16.61364447651167    9.77662446339467
C         9.65754072338244   16.50631789903356    2.50791196956896
H         9.59498212969988   15.42422249430159    2.51365185259339
C         5.82232801790862   13.07304613483954    0.07636905141600
H         5.10029604532534   13.28150238406354   -0.69959795504609
C        14.80950151812678   15.47676782881126   11.39711376557216
H        15.53080488471865   15.27001063020120   12.17417745522950
C         5.76968698132514   13.04061813675967   11.19722949358607
H         5.04430052008265   13.25286897815706   11.96898307716093
C         9.79750056038889   19.26744040155330    2.51814453135677
H         9.85290072025741   20.34630872617062    2.52495650407167
C         6.59436777127320   11.93504814752831   11.30416509368291
H         6.51366308456742   11.28061659681643   12.16011780727406
C         8.57152736789592   17.25229245862903    2.08817050583654
H         7.67187890432185   16.75120857234828    1.76424033025437
C         9.68901307095528   19.17572637815149    9.10517570656004
H         9.72545120770607   20.25532746446875    9.11208572297678
C         5.88045434043705   13.87474381616570   10.09649027532937
H         5.23753801865434   14.73852241654594   10.00572322164690
C         8.64138010626811   18.63534736182441    2.09078930931316
H         7.79518421409917   19.22113525004944    1.76423108647694
C        12.11415863610851   10.04414282034463    1.97931395078327
H        12.98252102470518    9.48234087915353    1.66936502088647
C        13.96716298083754   16.56887213377253   11.50414924019226
H        14.02938855364039   17.21769015508070   12.36589665455798
C        12.15981846610356   11.42768894965656    2.01913000560177
H        13.06159780358752   11.95324025117068    1.74412339953725
C         5.90439889520347   13.89254576189179    1.19058288041489
H         5.24391346315368   14.74225335460001    1.28673267941857
C        14.78755732819992   14.67457103038149    1.40548286930195
H        15.43783299968340   13.81784975435482    1.50980175266388
C        14.72256819450265   14.64978865534378   10.28886360254612
H        15.37932684102416   13.79656764541081   10.19797272356911

