89
CSD_code = PABJOU | q = 0 | S = 0 | Stoichiometry = C42H42Cl2N2Pd | MND = 4
Pd       11.02670167854966   14.05830234195333    0.18004736331099
Cl       12.72054225901185   14.27539947898069    1.74204980702821
Cl        9.43769660524212   13.94303399210265   -1.48180225949469
N        12.48772389581134   13.07133633716932   -0.93114506150112
H        12.99896409574455   13.73916436027019   -1.51122927718582
H        13.09462879859790   12.76171386406310   -0.16019550994698
N         9.54575808029416   14.97256622723996    1.29596782891333
H         8.98397186158059   15.40213039703007    0.55272006425063
H         8.97475256147657   14.26716842247311    1.77285153569169
C        10.69131577621477   16.57730276546625    4.42635060072990
H        10.81662122786097   16.33680340019639    5.47154600963845
C        10.05209508516419   10.00566567237873    0.83164246945665
C        12.00480657480377   11.97634507754752   -1.70761175501452
C        12.45916480032431   10.63450655398268    1.22759648785591
C        10.99326858346909    9.80371536906268   -1.83212895142128
H        10.54784167092983    8.95045105711823   -1.34298137040006
C        11.41493679439485   10.87918724567229   -1.06602120444177
C        11.65428748647093   10.92282335833919   -3.83243401389223
H        11.72643539816512   10.94971613062504   -4.91017695495594
C        11.02597846313940   17.84792713263494    3.97545747599164
C        12.10038667663832   12.01249602568092   -3.10153835662117
C        10.24540594616492    8.74996486825691    1.38973527340102
H        11.24863376363521    8.39175420453678    1.57081447173748
C        10.00165229972209   14.16423774103252    3.97508323380589
H        10.56847816765095   13.55374069680907    3.25256169276605
C        13.59477727753608   10.08310658753414    0.64966516857607
H        13.59132996303988    9.82245679625162   -0.39996929290671
C        11.19989450494922   10.90610220558479    0.43462004482199
H        10.86619989328068   11.94489442803455    0.70231362630278
C        10.63547278559680    8.63619202459443   -4.01857483420038
H        10.78222823355533    7.70546536614396   -3.47531898195277
H        11.15597056776849    8.57778246401636   -4.97147451438850
H         9.56931529459939    8.74197694922894   -4.22060021425940
C        10.60328675997611   13.87009297497843    5.33204290374603
C        11.11734663728489    9.80393354027396   -3.21372044765540
C        10.22865915962304   15.60409865046578    3.55738965624197
C        11.48984217703421   18.89494224586429    4.94146975245057
H        12.12736924681570   19.62437505001837    4.44798239438483
H        12.03929624080127   18.44355958310761    5.76420471475224
H        10.63171923206675   19.42299641472379    5.35933259932035
C        10.06096582719294   15.93346792520441    2.20904661019019
C        10.47771850337922   17.17393052957858    1.71903222280297
C        10.94595684563480   18.11989934953025    2.61708905047882
H        11.26954359766236   19.08213147290510    2.24701375375437
C         9.84872655721567   13.84946061129813    6.49611171942236
H         8.78520627660822   14.03552568970242    6.45516122561375
C        12.47801000276905   10.95255132804057    2.58159889375124
H        11.59773105138743   11.37689598357795    3.04315714595882
C        11.81306743894669   13.34879097409001    7.78283192362051
H        12.28113904422246   13.14585716394076    8.73509327169604
C        11.97094792800164   13.62843675000879    5.40605463356303
H        12.56248350718885   13.65389756827656    4.50241114429621
C         8.75646599031323   10.45578468947187    0.60147189033585
H         8.60565940044367   11.43578448757392    0.16474603074230
C         8.20505291546417   12.47045309356139    3.50936275528029
H         8.97951122017406   11.76260470808246    3.24655174534516
C         9.15711468069326    7.95719245590167    1.71347145208094
H         9.31646304686316    6.98203410118982    2.15034197434387
C        13.60980365499497   10.73181476035201    3.34131011441145
H        13.60917871754526   10.98941719690681    4.38994292365964
C        14.74225463148722   10.18955445867681    2.75575753714227
H        15.63117288257835   10.02211673412512    3.34576926314567
C         8.54815933194231   13.76240405984973    3.89491325403217
C        14.73068529951565    9.86372385098504    1.41134222082332
H        15.60961400722351    9.43762577892514    0.94928900120958
C        10.45200934642554   13.58822125703047    7.71499813142960
H         9.85439110241371   13.57351048242752    8.61514878348266
C         7.87022604448767    8.40606241069199    1.47241702836916
H         7.02411147239974    7.78152046434450    1.71965369988426
C         5.87820510568031   12.97852069577573    3.78868482570673
H         4.84269505251048   12.67507445848681    3.74987339144111
C         7.67163893935671    9.65772329950814    0.91195210137038
H         6.67020632933101   10.01197960927397    0.71474566998253
C         6.87906008095582   12.08007169750362    3.46000063056539
H         6.63258660757677   11.07201736819747    3.16287437665754
C        12.57183909704343   13.37118026338706    6.62399261811942
H        13.63569846439609   13.18822687998325    6.67034233090804
C         7.53575865379927   14.65900740877344    4.22185879583654
H         7.79449762794719   15.66613209618930    4.51773862287361
C        10.49760056745467   17.40944536368091    0.23787645700049
H        11.05786975775175   16.59029921411955   -0.26053141651795
H        10.98916136975989   18.35108940278761    0.00845609819378
H         9.49124186998040   17.43672801270613   -0.18516979746777
C         6.20949313914901   14.26886838031927    4.16758538160863
H         5.43242021869094   14.97377569799243    4.42476078888755
C        12.64461188520230   13.22551750860071   -3.79933960028280
H        12.06102845686662   14.10744311654598   -3.52866372106975
H        12.57947353625629   13.09832051396736   -4.87631609918063
H        13.69178639014216   13.40218067452874   -3.54543303044763

