103
CSD_code = PABJIN | q = 0 | S = 0 | Stoichiometry = C39H60N3Ta | MND = 5
Ta        5.80671974449652    7.20923524200590    5.06084644406831
H         7.18134731532060    6.36808457078103    5.50108908922742
N         3.96315894926137    7.02640063593191    5.81028288640695
N         5.53743585965337    7.25679107582170    3.06423863483524
N         6.20450894361905    8.95545845421047    6.02620496300611
C         2.75897530348606    7.60767628310230    5.54541692523806
C         1.57390751075581    6.88386940702191    5.33806064904729
H         1.59135049848792    5.80803835769288    5.41766915630330
C         0.39181513124250    7.52801059546331    5.02035896619687
C         0.37105597531137    8.91344157946111    4.90655064298476
H        -0.55285670599531    9.41361933054685    4.65376990232934
C         1.52529684545168    9.65870043848126    5.11505165727802
C         2.70060343468703    9.00611803275479    5.43671050481998
H         3.60340160136931    9.57514061011360    5.60631193097933
C         4.30722679565778    5.68609419363670    5.68417699652233
H         3.78317137084490    5.16508416719758    4.86622418720505
C         4.37386123387724    4.79629854090350    6.92719342955872
C         6.50434893297594    6.66362480100388    2.27461674562795
C         6.83494668316166    5.32696769559737    2.54117396383081
H         6.26600054329635    4.78796022787852    3.29059817569905
C         7.84309300180743    4.67920901859868    1.84488584397557
C         8.52907494060080    5.36335278312543    0.85219106483504
H         9.31061158374649    4.86607821727747    0.29574672322551
C         8.21521113464298    6.68496585911441    0.55451789933478
C         7.21449211237613    7.32493082098540    1.26223757855200
H         6.98510029110687    8.35341271276005    1.02815832308587
C         4.72851067341040    8.32451298939705    2.53113897454508
H         5.33892326362401    9.11110039809392    2.06182362940326
H         4.21288630413674    8.78676114750578    3.38174476108764
C         3.62693580929631    7.87714034189584    1.53271520125288
C         2.59098370272173    9.00221314984102    1.45212264986596
H         1.82613744480696    8.75872959038612    0.71786609921497
H         3.06306396822139    9.93772382349824    1.15710244328527
H         2.10641415978149    9.14758444414511    2.41535448885728
C         2.95414309729411    6.60075095615000    2.03838327267032
H         2.51603592339550    6.76402551270684    3.02105590414719
H         3.67779414084173    5.78986848889544    2.10520072697377
H         2.16208965248951    6.29973770374358    1.35559288701898
C         4.20304443640373    7.62553368501051    0.13740311020601
H         4.92733645129668    6.81508439213576    0.15409614596957
H         4.69029459205520    8.51931335729125   -0.24765004227190
H         3.40308909085182    7.35391733863837   -0.54904442529036
C         6.54245881745295    9.94509073202569    5.11897660067523
C         7.55777807170140    9.67454389399031    4.18593391401097
H         8.12919747161064    8.75579575812161    4.28248583804906
C         7.89402182861208   10.57817149260131    3.19246757109924
C         7.20358011162185   11.78093028339681    3.10975408413570
H         7.45584448206294   12.49139091950336    2.33541996065376
C         6.20480199185809   12.08850666081711    4.02436231663033
C         5.88966428941311   11.18212982321317    5.02200040496350
H         5.10849409662534   11.44225903520739    5.72195233653615
C         5.82249042298218    9.34745391321877    7.36126199004884
H         5.22111406539864    8.53036610561912    7.77407724482327
H         5.20226150874786   10.25231239354635    7.36065054096786
C         7.01705436090161    9.60096925479489    8.31707834518214
C         7.86919893430606    8.33767142898148    8.43478740790991
H         8.18489552907195    7.99753355995054    7.44955090096038
H         7.30294936479157    7.54000593884607    8.90967657144427
H         8.75475709038860    8.53535133960485    9.03495489431868
C         7.88004894985838   10.75600457028524    7.80540096465861
H         8.66886478152778   10.97809091214726    8.52130773131381
H         7.28304306496340   11.65488296901843    7.66534566915320
H         8.34275870895278   10.50189807883876    6.85519277499457
C         6.44939250059539    9.96388190224804    9.69177527463753
H         5.81057128785026    9.16704637692319   10.06586916011613
H         5.86229848686873   10.87842869346732    9.63874768065965
H         7.25703610299594   10.11865706032146   10.40342410165331
C        -0.86300786932674    6.74169080082033    4.77819724211997
H        -1.67774734125377    7.12511942283520    5.39066549810659
H        -0.71605671744264    5.68989320395455    5.01087792387643
H        -1.16376465912422    6.82578856162022    3.73382559167780
C         1.50235179646011   11.15572849822952    5.00387908743964
H         1.32870372711501   11.60118236893903    5.98436637704654
H         0.70572988624697   11.48352954737367    4.33965913923080
H         2.45205374624166   11.52970995555921    4.62584763642748
C         5.30190228989458    3.61722100636171    6.61378823370697
H         6.28928584989709    3.98560522539716    6.34231324310965
H         4.90835260509527    3.03450320330072    5.78389128964595
H         5.39459428617340    2.96352631295053    7.47812931715638
C         4.92303542965959    5.57494849351024    8.12308809056446
H         4.96686083503781    4.93261914975712    9.00045798049728
H         4.27547374800958    6.42062456866023    8.34775140535836
H         5.92519073075724    5.94071269988160    7.90243645804279
C         2.97982281221085    4.25957307620357    7.28363943608365
H         3.04390116828496    3.58278687548079    8.13391303890626
H         2.55167593693108    3.71111974150108    6.44681841130401
H         2.31335805437297    5.07744910987754    7.54682611575302
C         8.17727073549846    3.25447430067352    2.17367331918710
H         8.83636394048129    2.82507780232480    1.42323626189146
H         7.27259414570405    2.65266655573543    2.23421286976917
H         8.67547778115595    3.20342096137402    3.14147113949245
C         8.97247645489893    7.40791164213447   -0.52065599944925
H         8.53837335215009    8.38539666882092   -0.71557104143837
H         8.96387266119414    6.83199031191510   -1.44473989084719
H        10.01261148447531    7.54432924047243   -0.22439221487160
C         9.02005529887468   10.28271587779709    2.24643591387980
H         9.93142655303977   10.77059002317711    2.59438428300539
H         8.80039176061950   10.66333103561038    1.25069185589652
H         9.20772096801954    9.21337184466313    2.18534027666807
C         5.45584332798587   13.38374410362335    3.91235712046247
H         6.13067867378232   14.19736426765693    3.65439229923350
H         4.95179605466452   13.62789664668951    4.84460586555190
H         4.70271242925056   13.31325282761083    3.12634303484354

