131
CSD_code = PABKAH | q = 0 | S = 0 | Stoichiometry = C66H58Cl2N2O2Pd | MND = 4
Pd       -0.98091401456689   -1.33815436472195    6.36034977979848
Cl       -2.19014688537168   -3.06976499251342    5.39711649321385
O         1.06146431118338   -1.87258637796473   12.59100446309954
N        -2.16472825484862   -1.65622955536718    8.05190197853321
H        -2.60727644427528   -2.56256059283475    7.86525601680681
H        -2.90064718350602   -0.95071096741131    8.15143335001017
C        -0.48755165335469   -2.77758383924123    9.44511068055478
C        -0.37485240049853   -3.91155630319116    8.44471551881815
H        -0.78707634405693   -3.59045581879741    7.47328036851685
C         1.09370598274599   -4.17092533443728    8.17080069557473
C         1.77479040293305   -3.23308549679143    7.40231124793025
H         1.23204421246605   -2.35778061267332    7.02963685909057
C         3.12079071535451   -3.38427401207647    7.13164016607907
H         3.64166236136350   -2.64357000481758    6.54213239651275
C         3.80001125677030   -4.48984922353390    7.61895039183455
H         4.85223546631604   -4.61495069792061    7.40910969195872
C         3.12750826409253   -5.43099930141344    8.37806784442047
H         3.65465721512475   -6.29331766279223    8.75978640371451
C         1.78006179219769   -5.27224123273197    8.65831882678549
H         1.26198145407668   -6.00947099716600    9.25445437929886
C         0.30706956262334   -2.78624507255724   10.57800759786555
H         0.99285086123442   -3.59881527018551   10.75780375866197
C         0.25963803060245   -1.74288165891819   11.49860461890069
C         1.10451471105111   -0.81565873078368   13.51858071551744
H         1.44438975936647    0.11463249192263   13.05244811721956
H         1.82074055115074   -1.12087203173076   14.27971757097666
H         0.12843819842848   -0.64952931744711   13.98662156338127
C        -0.56794322577901   -0.65565547308174   11.25116188043747
H        -0.59451911676173    0.18107224144378   11.92901879499291
C        -1.35768106466426   -0.61250196694637   10.11239260434117
C        -2.18235650218441    0.61606693899541    9.77573991767357
H        -1.87636619903834    0.92760431758179    8.76591332217038
C        -3.66903082152776    0.34071704063985    9.75899788761468
C        -4.49832684571569    1.12385960298129    8.96262857131354
H        -4.06605838228940    1.89224609497790    8.33731417760466
C        -5.86707055524361    0.92663080844714    8.96753248714089
H        -6.49802649585496    1.54667102603854    8.34863304876708
C        -6.42413219854388   -0.06105935274331    9.76264983756398
H        -7.49267443856767   -0.21643724718499    9.76636111327046
C        -5.60592393346863   -0.84836441279316   10.55507359434260
H        -6.03490464604561   -1.61913686280480   11.17846977144586
C        -4.23676098945356   -0.64708611856301   10.55706840698945
H        -3.60060466231280   -1.25950894609507   11.18116863817975
C        -1.86457725108696    1.78012137375397   10.68945091187953
C        -2.58091064690297    2.01696096046043   11.85524902184403
H        -3.40452071112457    1.37033282180926   12.12210591822325
C        -2.24611163832049    3.07791484874354   12.67884861420511
H        -2.81137633897425    3.25313571209884   13.58289004628856
C        -1.19108218992052    3.91087585056195   12.34852034216441
H        -0.93069343543113    4.73738396190988   12.99337641291765
C        -0.47182090237832    3.67935402217501   11.18790542112431
H         0.35294394554224    4.32525577350761   10.92434129490272
C        -0.80783400034941    2.62164573532612   10.36280301788798
H        -0.24212022046789    2.43573241896046    9.46143163474176
C        -1.34553888083626   -1.69207980707436    9.22318515210402
C        -1.12421832861875   -5.16185022991520    8.84376161488089
C        -1.44978048799221   -6.07315053034779    7.84383470340710
H        -1.18831273151333   -5.85128038410986    6.81934500867130
C        -2.10909838763730   -7.24866393317678    8.14881008996526
H        -2.35382180087766   -7.94741054480740    7.36231648571795
C        -2.45923489842011   -7.52820441129033    9.45957975395180
H        -2.97436953320109   -8.44644498796012    9.70065507952587
C        -2.14956973414344   -6.62179227947800   10.45781244623350
H        -2.42392945892471   -6.83045124142289   11.48189155285931
C        -1.48552881482808   -5.44507895533171   10.15338840610089
H        -1.24965835516314   -4.74588993732928   10.94197338301134
Cl        0.22818827833857    0.39348103165621    7.32398383175640
O        -3.02302743206409   -0.80334087647990    0.12956502054797
N         0.20287308105860   -1.02005059385056    4.66883679394387
H         0.64539241334287   -0.11374088129181    4.85563780493414
H         0.93879322619672   -1.72555927434636    4.56929344519467
C        -1.47417180457861    0.10147243638499    3.27558355079588
C        -1.58692118331376    1.23540126022616    4.27601725145662
H        -1.17470623258898    0.91427974324919    5.24744255129920
C        -3.05549203243625    1.49470219449996    4.54992231102257
C        -3.73656167802748    0.55678363912407    5.31833044535042
H        -3.19380491078544   -0.31854341110357    5.69094334977772
C        -5.08256744709676    0.70791014697241    5.58900516508469
H        -5.60342625469325   -0.03286517600110    6.17843290655631
C        -5.76181703414787    1.81350954767557    5.10178768070597
H        -6.81405213368904    1.93854535735262    5.31160600600264
C        -5.08933048327370    2.75473826677639    4.34275348771466
H        -5.61650385742478    3.61706846031612    3.96109664228387
C        -3.74187736089853    2.59603812881988    4.06249525872287
H        -3.22381838066431    3.33334628659495    3.46643917153468
C        -2.26870083717858    0.11021346724940    2.14262522208609
H        -2.95444039937032    0.92281678585017    1.96282496010335
C        -2.22122938588780   -0.93309535241775    1.22197672712014
C        -3.06612841350424   -1.86025106219282   -0.79803300973566
H        -3.40595924597202   -2.79055794288651   -0.33190003986197
H        -3.78241439229094   -1.55502019665091   -1.55910369785997
H        -2.09008689658351   -2.02635710328433   -1.26615068264228
C        -1.39364532028820   -2.02032989743932    1.46938103920452
H        -1.36697712080106   -2.85698278942388    0.79143828614529
C        -0.60401506878873   -2.06357062422948    2.60821772203239
C         0.22068354931723   -3.29213831891767    2.94483621840703
H        -0.08527642951778   -3.60371383005757    3.95465347493136
C         1.70735397607251   -3.01675661640946    2.96158292810422
C         2.53666603621776   -3.79995079096418    3.75788831877953
H         2.10439842460770   -4.56833999404226    4.38319987606515
C         3.90541601330719   -3.60277063434017    3.75292260341029
H         4.53636829099859   -4.22280298028539    4.37183186313262
C         4.46246705085201   -2.61505916818957    2.95782492455586
H         5.53101112920155   -2.45969510430546    2.95409150186526
C         3.64423887169207   -1.82767619352652    2.16549995443961
H         4.07321367535815   -1.05690392834722    1.54209956830119
C         2.27506890076722   -2.02891438245474    2.16355397331119
H         1.63891527302509   -1.41647121826632    1.53947390058032
C        -0.09711425240282   -4.45618581134805    2.03112371505694
C         0.61921421450620   -4.69304565553509    0.86532776386122
H         1.44285216587268   -4.04645139693750    0.59847540673636
C         0.28433405299012   -5.75395138290592    0.04170159975999
H         0.84958229078175   -5.92920367800353   -0.86234229845426
C        -0.77076131665514   -6.58683816929350    0.37200441767072
H        -1.03119167514755   -7.41332450106382   -0.27286102001049
C        -1.49000247232533   -6.35530697393216    1.53262880511105
H        -2.31479340997279   -7.00117244988174    1.79619431127644
C        -1.15391153922084   -5.29764736092385    2.35775887264659
H        -1.71960521449437   -5.11170433548810    3.25913500400716
C        -0.61624187544195   -0.98406930136037    3.49751306340694
C        -0.83759151455884    2.48574059007742    3.87704085824123
C        -0.51207232986368    3.39699414358936    4.87702627706183
H        -0.77352451513629    3.17503861569133    5.90150132560201
C         0.14721769117143    4.57254574266574    4.57214164186125
H         0.39191641128195    5.27124519229479    5.35868532871543
C         0.49737311388051    4.85217900782754    3.26139585678951
H         1.01245138366096    5.77046891722596    3.02038484253096
C         0.18775982495258    3.94581302103988    2.26310542408450
H         0.46211604243887    4.15455622602241    1.23904204355094
C        -0.47625186872704    2.76905955306871    2.56744298500716
H        -0.71206871171026    2.06991464626566    1.77880360676060

