109
CSD_code = PABNAI | q = 1 | S = 0 | Stoichiometry = C51H53ClP3Ru(1+) | MND = 9
Ru        6.90218549821447    1.00089909224115   14.53071340329053
Cl        4.56791047369614    1.19568154886410   14.29751998242739
P         6.69517769285154    2.84508066820334   13.17718868053726
P         7.07167993786628   -0.23650431886701   12.59710049733855
P         2.99099697195641    1.44544332149532   10.08978222083740
C         6.40062075644689    1.07984652182145   16.84439250197887
C         6.76633508946926   -0.23762420606315   16.45973597526523
H         6.11679332282061   -1.06601702294569   16.72408680853399
C         8.01549770604941   -0.49576415274307   15.87595386370111
H         8.33195460400429   -1.52147530728165   15.71473828927402
C         8.94751148300012    0.55021087849810   15.64275622815148
C         8.52893538801652    1.86464539676627   15.91413541805670
H         9.23033709200732    2.68293416994655   15.78266641057547
C         7.27911105237596    2.12432403037814   16.52999506017932
H         7.04868643558425    3.13731686475622   16.83572465082321
C         5.14937936156232    1.28575734556781   17.66103870080960
H         4.40010646823996    0.55974784498786   17.32420489417974
C         5.49817844444538    0.98198121040993   19.12481265278136
H         5.88336889181055   -0.02946210408234   19.23746954922076
H         4.60877211529823    1.08198602274065   19.74064878521079
H         6.24924821243833    1.68084911508460   19.48857124423509
C         4.54473324959904    2.68229602776532   17.53327081760985
H         5.17813159610332    3.43795871584041   17.99348781233710
H         3.58192819437316    2.70354942517938   18.03657800125221
H         4.38609720288268    2.94099978651135   16.48815817996560
C        10.36643849953297    0.23812732387578   15.27452432109516
H        10.88667882242026    1.12058604240352   14.90880713514269
H        10.42526882889188   -0.54880459560339   14.52527919665233
H        10.88763043236451   -0.11422651505764   16.16661001536001
C         8.27098910093954    3.49737054283385   12.53794506005253
C         9.43019325295826    2.74093749385920   12.65367700206871
H         9.37191855187187    1.76688708405915   13.12786722838948
C        10.63030623461436    3.21832013942910   12.15715801317822
H        11.52777213512933    2.62398786094098   12.24657073526516
C        10.67629172162651    4.46028141356613   11.54505125679379
H        11.61061268944469    4.83703502767285   11.15877827848202
C         9.52274995026383    5.22166841868070   11.43038061162543
H         9.56098247865293    6.19024391190967   10.95596886906766
C         8.32206521111664    4.74566762971998   11.92356665742978
H         7.42527183192866    5.34520099434190   11.84605383085514
C         6.04481160718815    4.25793104067358   14.11202916490313
C         4.68058008179863    4.51087651614312   14.22251348925671
H         3.96044358427762    3.89162631946461   13.71066022275270
C         4.23395239573100    5.55773909218523   15.01044028796831
H         3.17439619975230    5.74746420419733   15.08595800665746
C         5.13495183251504    6.35051656982003   15.70110516076707
H         4.78155078320412    7.16412584584859   16.31559333586828
C         6.49438741646051    6.09552379578257   15.60458976981666
H         7.20101942775127    6.70988541978818   16.14254324570831
C         6.94794952537690    5.05325696764827   14.81885593819167
H         8.00974311380061    4.85821652775620   14.73895578721937
C         5.94968501686410   -1.65493271105900   12.38148383300346
C         6.07083275662012   -2.46410100197749   11.25289675374547
H         6.80397199240296   -2.23034329816938   10.49308296558825
C         5.26348666261749   -3.57653334801118   11.11211367225578
H         5.35429245966349   -4.19718130883008   10.23375520586480
C         4.34155270683252   -3.89819747110085   12.09733502928021
H         3.71595084972652   -4.77013826412948   11.98389548708376
C         4.22849885252814   -3.10474748721830   13.22653451563291
H         3.51224195263331   -3.35425874582979   13.99464776921982
C         5.03355471889347   -1.98772474122068   13.37173545882154
H         4.94284248119164   -1.35606402053287   14.24541177072363
C         8.66056785496071   -1.12411622952805   12.45193280219346
C         8.76653935277262   -2.34576268319935   13.11868634182349
H         7.90854727103534   -2.73434911397099   13.65179698829284
C         9.94089890194040   -3.07325846864484   13.07757772347855
H        10.00550914511801   -4.02019478117210   13.59194213555330
C        11.03026813327994   -2.59012694796015   12.36925288978100
H        11.94699500746678   -3.15768191117470   12.33259526308809
C        10.93352322905215   -1.38034907600746   11.70247053053429
H        11.77603940157685   -1.00517774887143   11.14153665543519
C         9.75937870344501   -0.64678019401773   11.74336997711316
H         9.70964314404925    0.28965663562993   11.20994657799620
C         7.02822500049415    0.71412150650611   11.02255385351380
H         7.89965683335714    1.37740910005398   11.04150991622687
H         7.16567124078189   -0.01005997166472   10.21198174664232
C         5.64371898072484    2.77877946646869   11.67580118167658
H         4.60616488066078    2.84113457275907   12.01449514990271
H         5.87470969050531    3.70586013260632   11.13816679901986
C         5.78025286823995    1.56590518846977   10.72655265460064
C         5.93977034049430    2.09394215256022    9.29679748478719
H         5.11655393204475    2.76133151167261    9.05164814823373
H         6.87623067733960    2.63780534844007    9.18556124793547
H         5.92577082655331    1.27321941937093    8.58323526275118
C         4.53590001859892    0.67766910845655   10.82046355720362
H         4.71187228035864   -0.22477352706445   10.22773593887526
H         4.36642075217896    0.39877895609117   11.86516604854252
C         1.87468161722548   -0.00950946578989   10.08500193887868
C         0.64325755344327    0.21003808830107    9.47131341049982
H         0.43226742116721    1.18643750342670    9.05473775103141
C        -0.29747887733838   -0.79825203516655    9.39458649055545
H        -1.24911427955207   -0.61519358808264    8.91840378828621
C        -0.01356679670358   -2.04647309669328    9.92492347114045
H        -0.74287358716005   -2.84010478182393    9.86327056729755
C         1.20938815088832   -2.27302426878855   10.53189862832280
H         1.43496925461081   -3.24429053856287   10.94855553069159
C         2.15321474821033   -1.26349471914450   10.61384897430366
H         3.09635215506258   -1.46852540202054   11.09703552046694
C         2.27202131719043    2.26611907514255   11.57451863458879
C         1.87000167848128    1.55733388610030   12.70090592891234
H         1.99315956771982    0.48486347239964   12.73778961182905
C         1.30392135856624    2.22470298885880   13.77088254543241
H         0.99626465954319    1.67012433010480   14.64469001322436
C         1.12394363209505    3.59808604225857   13.72296657697311
H         0.67207745526116    4.11189015513542   14.55877246595860
C         1.51066625208085    4.30853124212332   12.59833454883777
H         1.36291338844936    5.37769284448730   12.55240379975261
C         2.08159832338030    3.64342553045777   11.52739166454258
H         2.38106313994207    4.18945674277075   10.64278555276698

