91
CSD_code = PABPUE | q = 1 | S = 0 | Stoichiometry = C43H42NP4Pt(1+) | MND = 5
Pt        3.36928352558516    2.19432329368513    5.81069349849040
P         4.11669223537399    1.09922653894401    3.97152638121521
P         5.30649850436171    3.55250084274099    5.46393224918770
P         3.48342468012294   -0.01802272338931    6.81446322520207
P         1.37408173041986    2.50146057078666    4.41603677181210
C         2.73296006500773    3.13754892301414    7.41705485363999
C         4.63512784165011   -0.62062986545967    4.35093736584031
H         4.66199166619608   -1.22666952707868    3.43877584043770
H         5.64688032772797   -0.57454551650257    4.77183597936323
C         1.93817153469181   -0.06082917247043    9.04164056855633
H         2.42620698545166    0.89145467663219    9.21194047200385
C        -0.06468827406421    0.87828723561258    6.08262995048481
H         0.55666336797908    1.33967877911593    6.84247410175126
C        -1.64052622788379   -0.28157408655242    4.12661235929430
H        -2.25805930217357   -0.73296417225416    3.36449821702356
C         6.52345444105918    5.48105428114298    8.77718682996449
H         6.04700567426863    6.11239083086276    9.51092433763235
C         3.66615244350449   -1.19064961465063    5.38510880910752
H         4.01326504189061   -2.16285338225140    5.74651095549429
H         2.66980347858228   -1.31254040796290    4.94419798346737
C         8.47934222035532    4.35772781564291    7.95063006135706
H         9.52880362105532    4.11896661945761    8.04024290353951
C        -0.02142808426058    4.60231564308907    3.10039597167671
H         0.27073994439752    4.18553393215147    2.14831763960437
C         5.01192482749949   -0.31588114500318    7.75413879497716
C         6.40014397919578    4.15277079386313    6.77749725029377
N         2.34095796679526    3.66809866461584    8.35511128320544
C         0.36772680372154    4.00804877653092    4.29500297741706
C         2.85775444330437    0.94983974887512    2.64162580100997
H         3.34377042991958    0.83436298757478    1.66671716039534
H         2.27023797968289    0.04738959510104    2.84854512619349
C        -1.80679710225673   -0.63926450753954    5.45531466171215
H        -2.55198418033104   -1.37170208346876    5.72525415162220
C         5.78699339950140    4.96900704260136    7.72737347570367
H         4.72882811880006    5.18175925172412    7.63658578173594
C         0.11065068205121    1.23449312810601    4.74804389793027
C        -0.79257481615066    5.75163329329653    3.13092477785339
H        -1.09483534335603    6.21415726657577    2.20307613048982
C         5.57142595422934    1.92974427426995    3.21748550844644
H         6.15978149099367    1.22154454195079    2.62436415704972
H         5.19046777640894    2.71388517560650    2.55173994157869
C         5.88188853013104    0.73805853786982    7.99947769706037
H         5.62794772059714    1.73174384503958    7.64322385414086
C         6.39730361871432    2.55435407100746    4.34042577609109
H         7.18921834032977    3.19010823243693    3.93401369721710
H         6.85397033891309    1.76813182629508    4.95279359017073
C        -0.01088572478595    4.57350417067052    5.51152113829067
H         0.32189746633182    4.11769007550769    6.43586437150162
C         0.38709059177691   -1.76390138523428    9.69714054198337
H        -0.33546381016712   -2.14997761579717   10.39990527033893
C        -0.69137560645640    0.65905816081557    3.76856985463259
H        -0.58799141128767    0.93970936449402    2.73040582594297
C         1.95327984622447    2.17998541088615    2.68296201432301
H         1.10479077473386    2.05864993945405    2.00518741836034
H         2.51121264339663    3.07378142302668    2.37774249237270
C         2.24262045941165   -0.78431980761929    7.88907785879127
C         7.74937418913423    3.83991159747013    6.89396090499130
H         8.23694602804824    3.19884217673852    6.17422796452147
C         5.30231131974317   -1.58561852265332    8.24659712967492
H         4.60906150100995   -2.40051389100633    8.08797341030942
C        -1.17604380823249    6.30781845902578    4.34003461362493
H        -1.77657343661615    7.20439858124163    4.35284854854270
C         6.47022496626175   -1.79336372042214    8.95500032377530
H         6.69753360189093   -2.77681271045827    9.33770084139905
C         1.01476345402689   -0.55178857549959    9.94340051434745
H         0.78137729096168    0.00992641927000   10.83471219370326
C         7.87180687382070    5.17611282416726    8.88824552448200
H         8.44899735434123    5.57326695160861    9.70906235231758
C         7.34581454282266   -0.74144287074556    9.18286361027344
H         8.25456056717386   -0.91133367973525    9.73963302348373
C         1.60541074307280   -1.99286394576147    7.63779319314733
H         1.81852474071696   -2.56064259870479    6.74431441730469
C         0.68125899641283   -2.47814570443814    8.54765836541341
H         0.18858414645360   -3.41954513035841    8.35524475814102
C        -1.02368786634426   -0.05219828151180    6.43576170311883
H        -1.15549183255792   -0.31931022575005    7.47310796766642
C         7.04956962103065    0.52601280180128    8.71006532231236
H         7.71936175062553    1.35174270428654    8.89904534955590
C        -0.78408661478139    5.71796052256503    5.53185136887635
H        -1.07454518599760    6.15302477082976    6.47551133638952
C         6.08353334049071    5.84676122184160    4.06665350542657
H         7.09720647278710    5.56944208256020    4.32242211667799
C         5.01529384519871    5.06365175976976    4.49629845790236
C         3.71289432025547    5.44872160261374    4.20719912854856
H         2.88663655733263    4.85197504765319    4.58056946120714
C         3.47257053336873    6.59329767827900    3.46871591076423
H         2.45651134853143    6.88619290286062    3.24914042243537
C         4.53708938796648    7.35956568734097    3.02408257064494
H         4.35490338148611    8.25409505383273    2.44852433252647
C         5.83918947271942    6.98899844836327    3.32847806783982
H         6.66519476766529    7.59770599509815    2.99322168368083

