51
CSD_code = PABQUE | q = 1 | S = 0 | Stoichiometry = C26H21AuN2P(1+) | MND = 2
Au        6.06952374736227    2.33659361028513    8.64906359917209
P         6.43297129435563    3.85179929706021    7.02065232202779
C         6.59014207666695    0.07732231667493   10.82704166427398
C         6.15364839381164   -0.80928364273162   11.82099946128877
C         4.82250973435825   -0.84699508254879   12.15093275116209
C         3.92810436335226    0.00952833082889   11.47888730845463
C         2.53694864774713    0.08281794108286   11.71104852962594
C         1.78821693725081    0.96533060530606   10.97881599788006
C         2.42747105939339    1.77080299257953   10.01780731443119
C         4.46260602639152    0.87026635147990   10.48794189813945
C         7.18523242253029    5.39027028459918    7.60643430114968
C         6.61717382456018    6.64231978820347    7.40482419409503
C         7.25910271072415    7.76764110238310    7.89424430763931
C         8.45478836017045    7.64646808236534    8.58250633697248
C         9.01639606406679    6.39529625048429    8.79342710460740
C         8.38109196309219    5.26741236255004    8.31306532978457
C         7.54044049615251    3.27632650271606    5.70785964424061
C         7.40068617194644    1.95474643039328    5.29189539480701
C         8.19311337195174    1.46551346740498    4.27120523458953
C         9.13110492682655    2.29049388345870    3.66906440387273
C         9.27457295431474    3.60417790869625    4.08536627701983
C         8.48123199480568    4.10376038481134    5.10324311548438
C         4.92192186897401    4.33994548539514    6.15283228595010
C         4.97165600138132    4.90305683853536    4.88018678534750
C         3.79736815692784    5.28059186006545    4.25539351566085
C         2.57961730491201    5.09890013062460    4.89306042926797
C         2.53079913307787    4.53514628445972    6.15822575844526
C         3.69962727841768    4.15111019741051    6.79024608309507
N         5.77757353808747    0.88395534841416   10.18640714592933
N         3.71177205704026    1.72660431155232    9.78125001037412
H         8.80393063722291    4.28240736208755    8.46990885811087
H         9.94656509636229    6.30290581593178    9.33314048261133
H         8.95075802116969    8.52784717131497    8.95879781355815
H         6.82308083922919    8.74223327131869    7.73586302112726
H         5.68334847275045    6.73582525083999    6.86854825696309
H         7.63400932415010    0.12344063602405   10.55178887669520
H         6.86984712066524   -1.44817320753475   12.31137366282235
H         4.44933749499070   -1.51676929049980   12.91131005373811
H         2.08974941567843   -0.55535839210564   12.45851170884065
H         0.72387816544776    1.05246119125510   11.12554054066512
H         1.85816235653709    2.47433653055762    9.42543228006354
H         6.66726682971877    1.32205245843693    5.77735847234800
H         8.08427190526472    0.44192615790543    3.94648969243805
H         9.75364061998305    1.90701932565147    2.87548850868421
H        10.00689237550535    4.24336720208426    3.61604525336460
H         8.59462480644939    5.12788957430033    5.43123627758014
H         5.92435849059146    5.03858465015550    4.38664377428357
H         3.83093340024569    5.71652823724261    3.26859765350389
H         1.66614112557704    5.39434598665384    4.40024783837713
H         1.57923950963590    4.39357933563748    6.64828300340860
H         3.68065111216546    3.70043110819108    7.77456546601955

