59
CSD_code = PABSEQ | q = 1 | S = 0 | Stoichiometry = C30H24AuN3P(1+) | MND = 2
Au        6.42658517620043    0.88128688403597   13.25494590451164
P         7.12598201888292    1.77141901964306   11.31100464989520
N         5.69985290778112   -0.03636344891814   15.00025789716007
N         5.49885150887355   -0.38525379031560   17.17142905374824
N         7.53029592737375    1.98855184922449   15.31022553274914
C         6.11425441698796    0.33128773353166   16.19857546042016
C         4.77743559911378   -1.02910907401894   15.17887695126119
C         4.03662740553801   -1.76175247616196   14.25627280357589
C         3.17188776851484   -2.71068109085224   14.75461929910833
C         3.03711047578924   -2.93638588830713   16.12965986225899
C         3.76314902125183   -2.22118224301484   17.05879012897775
C         4.63662066393204   -1.26317626162399   16.56435255392945
C         7.10428836065401    1.37172609874353   16.41435096527525
C         8.42925017322110    2.94613427756208   15.40821411921797
C         8.96694517633056    3.35346741695766   16.62181097099358
C         8.53372745384809    2.71929195703421   17.77595048590108
C         7.58735720960408    1.71221381156301   17.67861586008355
C         8.69769463144175    2.65369457793054   11.49267241341354
C         8.91719370133063    3.93190102909266   10.99286939661135
C        10.14748260518305    4.53786654222136   11.18523112125771
C        11.15253963868426    3.87608118645564   11.87143871898684
C        10.93196210961691    2.60256683247403   12.37603262124722
C         9.70551186602787    1.99353368922140   12.19351501422027
C         5.98964990833440    2.98281615650862   10.59108468587341
C         5.89094933795486    3.18150067553152    9.21720261951241
C         5.01759103664439    4.13610136553968    8.72753588872227
C         4.24718814517707    4.88959548220190    9.59925195186682
C         4.34419528316709    4.69078627907594   10.96794514216272
C         5.21079935520688    3.73575216215365   11.46549022480732
C         7.42268807813739    0.58331945855953    9.97702946702955
C         8.53836087930931    0.63805968342567    9.14863591780627
C         8.68232568291783   -0.29608507137274    8.13755948742390
C         7.72194857499329   -1.27701007743038    7.95083742051282
C         6.61041543278251   -1.33325099265132    8.77834593552018
C         6.46196437052426   -0.40846210878041    9.79372026265171
H         5.63405541539347   -0.28959992329777   18.16450711582995
H         4.14543827691233   -1.58273669608243   13.19873237462608
H         2.57921668353436   -3.29935819963402   14.07215791777284
H         2.34554286942572   -3.69149199480974   16.46860519321575
H         3.65782763652538   -2.39687708503941   18.11735313554853
H         8.72963138703748    3.40306150199343   14.47493394344619
H         9.70063880779290    4.14177542015817   16.65938212919393
H         8.92634212920754    3.00343379273902   18.74026584399447
H         7.24264993746656    1.20661966802917   18.56666501924244
H         8.13220785409946    4.44742918960288   10.45762469148811
H        10.32135620110244    5.52944713210947   10.79579722304341
H        12.10995067003573    4.35291988985633   12.01521045649469
H        11.71564142209319    2.08897746695647   12.91231066796926
H         9.51267829759957    1.00357628079301   12.58844612599816
H         6.49185429021776    2.58993343966954    8.54033443549788
H         4.93709681761758    4.29178768922250    7.66244386561894
H         3.56612240777648    5.63109350622511    9.21081750115113
H         3.74036773446735    5.27658476545866   11.64435681262777
H         5.29326976833674    3.56069614839192   12.53168237589498
H         9.28685671009321    1.40438642566027    9.29539567322248
H         9.54723308430479   -0.25656362603495    7.49287980509041
H         7.84051234156701   -2.00166625187900    7.16006659855708
H         5.86478334590418   -2.09991339497662    8.63197337143595
H         5.60324401013977   -0.43955679039810   10.45320693429150

