53
CSD_code = PABTOC | q = 0 | S = 0 | Stoichiometry = C16H30CrO4P2 | MND = 6
Cr        3.76993780355900   -0.00026554802569    0.00008467809145
P         5.18491852847079    0.24267073507809    1.87306932457771
O         5.98281452804103    0.81024631964869   -1.86924781861483
O         4.85786603750017   -2.74836494537090   -0.55894799561617
C         5.12083248829631    0.54053722563075   -1.14342893644640
C         4.41005004176143   -1.70780708475835   -0.31560518132304
C         6.73483195311982    1.23324959947583    1.66509619792517
H         7.33121500356347    1.19573724760254    2.58195472975931
H         7.30134843186799    0.73524920330451    0.87105095392748
C         6.44041016664106    2.67228506427180    1.26536295129852
H         7.36214959582209    3.19919264980307    1.02476159233559
H         5.94135510253412    3.20760225150635    2.07041395367071
H         5.79371389420149    2.69260890326842    0.38845497286166
C         4.39687782481961    1.03412892796029    3.35275458893604
H         4.01905971827007    2.00058350439334    3.00363100902981
H         3.52071953196305    0.41952873302584    3.58357589660007
C         5.25008854499618    1.22330476249482    4.60171193409333
H         4.65365207858700    1.69573772112822    5.38069612872428
H         6.10690305560028    1.86279913194019    4.40411984594276
H         5.60705873342526    0.27118617330633    4.98664440571484
C         5.94145618931981   -1.28690249913989    2.59056041277886
H         6.51842306404192   -1.74170042213749    1.77833020379666
H         6.63649874183932   -1.02232417879735    3.39344120573369
C         4.88495235236604   -2.26515679200823    3.08470000761887
H         5.34323085919800   -3.20807956941419    3.37790495045410
H         4.16137528943068   -2.46543121222916    2.29475812044646
H         4.35103973396091   -1.86355003708963    3.94339505126852
P         2.35506341175969   -0.24288719209325   -1.87303151175954
C         0.80482318631433   -1.23303168703830   -1.66549277320672
H         0.20862772224051   -1.19518595375694   -2.58245918492379
H         0.23831920794539   -0.73499138487125   -0.87146394259555
C         1.09879408810794   -2.67220982419524   -1.26595231356197
H         0.17685537761513   -3.19892082205912   -1.02568657834324
H         1.59791421169419   -3.20750308010873   -2.07098007132551
H         1.74526674786480   -2.69285868235170   -0.38888567226977
C         3.14311244872032   -1.03424072963831   -3.35277027333841
H         3.52066724802667   -2.00084527013406   -3.00377606285926
H         4.01943883590168   -0.41979866754969   -3.58337529943222
C         2.29001384100074   -1.22297973304115   -4.60187047404545
H         2.88647867245703   -1.69526577534030   -5.38092196132162
H         1.43310123102786   -1.86242691951040   -4.40455118093502
H         1.93320035552275   -0.27071094833813   -4.98657663160370
C         1.59908033443633    1.28706152504621   -2.59031036061628
H         1.02213227811484    1.74184670308669   -1.77805924462943
H         0.90406210755910    1.02287821108146   -3.39334262969347
C         2.65591307067306    2.26514282183070   -3.08409131132766
H         2.19795621629846    3.20829250787223   -3.37707006248749
H         3.37947742280136    2.46497671969803   -2.29402701610920
H         3.18978221825810    1.86361135053548   -3.94284827774286
C         2.41907769317210   -0.54107201536189    1.14363312571979
O         1.55698350881887   -0.81064686509915    1.86936965127087
C         3.12957023240697    1.70714030957725    0.31590687036192
O         2.68150903806620    2.74755953688883    0.55939000319098

