65
CSD_code = PABTUI | q = 0 | S = 0 | Stoichiometry = C16H36CrN6O4P2 | MND = 6
Cr        0.30491994645216   10.66134635474910    2.99260008848833
P        -1.07456976810386   11.29236776697356    4.79583785924047
P         1.66949930740334   10.13764042446057    1.14398038028939
C         1.28373383571450    9.73510249206652    4.24950570667716
O         1.70973989937665    9.06239239877883    5.09553484048301
C         1.34647044878477   12.19393921006873    3.11214152195171
O         2.11633074593239   13.05894047323509    3.16803615247254
C        -1.04133149257069   11.37864908332654    1.93378931191673
O        -1.97918170929908   11.75075382954153    1.36275830106478
C        -0.31322843320432    8.93150703517813    2.84532088128884
O        -0.49088497220553    7.78666662392134    2.75738304588928
N        -2.27690058011027   10.16188551699195    5.21276579359346
C        -1.79832896127053    8.93573961700629    5.83010780059042
H        -2.61000874137792    8.49535462217726    6.41484821613126
H        -0.96363565509724    9.15827427227862    6.49086375466711
H        -1.47130502021623    8.19652787370706    5.09228098712865
C        -3.20632991207054    9.87225656469230    4.13454975116809
H        -2.79249220398882    9.15933260108099    3.41042126551587
H        -3.45780955743148   10.79033363703774    3.60775205598561
H        -4.11738886838063    9.44121982574675    4.55661800454997
N        -0.37115558899461   11.44263996140664    6.34180973482862
C        -1.18606848796508   11.67479365100333    7.51830083328982
H        -0.72181014671293   11.18853161841281    8.38150529948318
H        -2.17499315638685   11.25120784747889    7.36814074335994
H        -1.28316153956155   12.74367329758459    7.74416320950050
C         0.95611197572599   11.99745876088493    6.47962303699158
H         0.93009669191666   13.06036067265043    6.75092011814842
H         1.49694469611912   11.89056763585442    5.54032991769990
H         1.50105786493138   11.45871837888357    7.26128620591699
N        -2.10750797116078   12.62220022937407    4.55367488216508
C        -3.32670317333852   12.88876664648710    5.28726375181524
H        -3.18511917928973   13.68488340616781    6.02795188078120
H        -3.65896666812554   11.98842379684168    5.79549140097602
H        -4.10967230325000   13.21118145591204    4.59253027140456
C        -1.59412483553309   13.79606012508663    3.88654138358338
H        -2.28923493743508   14.12404973348490    3.10601727564935
H        -0.63324858761661   13.56325590225028    3.42628571942418
H        -1.45294987689764   14.62749801333858    4.58828518993612
N         2.34569348778136   11.44353568909249    0.28757067741762
C         1.51637290476742   12.58675213046055   -0.01599965414213
H         2.04669191210530   13.51413572498199    0.22572506348848
H         0.60109925015458   12.54097900532479    0.57507801785561
H         1.24490385801175   12.61649199913092   -1.07860155632756
C         3.52584671822065   11.37757178175280   -0.54852334003480
H         3.26531837460144   11.35685597173187   -1.61349243619378
H         4.10214190951530   10.48910393303354   -0.30809390256915
H         4.14914829080753   12.26056856971847   -0.37185234261636
N         1.10159692596168    8.99601739048166    0.01302549992325
C        -0.29827824207186    8.96545346131066   -0.34383386759626
H        -0.48967749431680    9.48096014567380   -1.29331330556173
H        -0.88594542541611    9.44507112360760    0.43772488274351
H        -0.63091652333752    7.92748157311393   -0.44575423753441
C         1.94984248410215    8.49530851132020   -1.05057424289850
H         1.69577192403424    7.45090368612068   -1.25561091925951
H         2.99080523676860    8.54843029403591   -0.74491132957095
H         1.81834390974272    9.06361844831033   -1.97935379296050
N         3.13245076072380    9.35637050889045    1.52721924469016
C         3.99865127226873   10.13016928258947    2.39960103079813
H         3.69293826819198   10.06516963765347    3.45140226265569
H         3.98317734402768   11.17618763911638    2.10093301445139
H         5.01941328659558    9.74940156327236    2.31586972263012
C         3.00793530964432    7.98698499937385    1.99936107834897
H         3.94766200677258    7.46175181483629    1.81013931533537
H         2.20550368645096    7.48460867766726    1.46403626972807
H         2.79851547911044    7.93251508125508    3.07211227312682

