58
CSD_code = PABVIY | q = 0 | S = 0 | Stoichiometry = C22H32ClN2V | MND = 11
C        -1.32096665976134   -3.34438473927830    3.97567363638435
C        -1.57772365336191   -3.02383667824975    2.62709933429547
H        -2.46823858983394   -3.29987185295873    2.07735052593232
C        -0.44856181541532   -2.37148338849195    2.09035658151890
H        -0.30411789222846   -2.10376757013074    1.05212690123778
C         0.53239519930821   -2.33978107269377    3.09965221876250
H         1.55823963503597   -2.03022416227195    2.96412317198684
C        -0.00889346636437   -2.90594972266932    4.26250133607336
H         0.52507677917229   -3.07213238781882    5.18678918128042
C        -2.24910834982108   -4.05730886456469    4.90773214435583
H        -3.23189056280493   -4.13866502547020    4.42490590395630
C        -1.73774544710009   -5.46800833564964    5.22595120271535
H        -1.64769769568468   -6.05391777257989    4.30912123629103
H        -0.75276531165116   -5.39873617412515    5.68976508458033
C        -2.69237113414252   -6.16415766789264    6.18998316852247
H        -3.67714283129591   -6.29546260230711    5.70153083807061
H        -2.30492000910875   -7.15624493595252    6.43783978268529
C        -3.58830756445696   -6.11179205207353    8.41184352766304
H        -3.60623643657280   -5.53079352650034    9.33304126052051
H        -3.11854896391472   -7.07312986354938    8.61651887989481
H        -4.62775940862858   -6.29165265382840    8.09158189232019
N        -2.81015317632510   -5.40431159845487    7.42048787281122
C        -3.35331477836804   -4.08392926053623    7.15385988200231
H        -3.45209453455947   -3.55924566431040    8.10787361207574
H        -4.35763623539094   -4.14667563280902    6.69384858464368
C        -2.41968978715772   -3.30646947094553    6.23307868064948
H        -1.44913143724644   -3.20828019498397    6.72295969613368
H        -2.83076165992827   -2.30952463463081    6.04408515582895
C        -1.10609844809081    1.13028663757518    3.42734320742931
C         0.19841855171029    0.59438863221400    3.34581851005112
H         0.87571492846260    0.70498446133163    2.51153529990418
C         0.51470654310119    0.00840019434876    4.57929327509984
H         1.48178706620335   -0.37554614802288    4.86908477546591
C        -0.60163733307223    0.12764291828737    5.42867541566617
H        -0.63504393938918   -0.13306367265437    6.47822237643941
C        -1.58585503624591    0.85129730926405    4.72360184776047
H        -2.52406229006913    1.20354825864548    5.13246981949314
C        -1.82778630741269    1.89118317093317    2.36000633103693
H        -2.85545293035260    2.07667532360950    2.69921431875711
C        -1.88489773759548    1.11053425210034    1.04179937671972
H        -0.86939127320439    0.90707580957032    0.69655969766165
H        -2.41097783286305    0.16269213330893    1.19478948821865
C        -2.60422549215823    1.93425512182391   -0.02018847778021
H        -2.61936193934672    1.38527663065421   -0.96547914508816
H        -3.65206087917048    2.10476882439903    0.29160104371890
N        -1.90663766793887    3.18912120386960   -0.23906794609754
C        -2.46699996469953    3.92545298432153   -1.34925824848490
H        -2.40683363085524    3.31475345903083   -2.24924776876520
H        -1.88622969389138    4.83359716523847   -1.50628983991519
H        -3.52042872259764    4.20754529970947   -1.18792088137075
C        -1.89117646583342    3.98058013314965    0.97694054512897
H        -2.91776163816373    4.21668778078690    1.31740557787109
H        -1.38233791886627    4.92452554096619    0.76294419625949
C        -1.14855621039153    3.23819530595158    2.08279282320520
H        -1.13160702142253    3.84734627953407    2.98867060602794
H        -0.11984841320647    3.06480081766780    1.76388282993566
V        -1.25628644603886   -1.10226243600699    3.71209658174868
Cl       -3.36910606922361   -1.03230588588367    3.57532307064398

