97
CSD_code = PABWUL | q = 0 | S = 0 | Stoichiometry = C40H52MoN4 | MND = 10
Mo        7.18918002106612    2.25062899614892    5.64273495225222
N         5.67425236136405    2.80436041253645    2.95678884973949
N         4.36210128309169    1.09297366210516    6.34124611859352
N        10.64289399759371    0.69598076035276    6.59023668331707
N         9.11135876772521    1.54196457443175    3.27152146409653
C         6.75709932233297    4.37496812883182    6.20370829021946
C         7.90984157271458    4.37648805359477    5.34009360771074
C         8.97534303865629    3.73198304628623    6.01745744203451
C         8.51091123464107    3.35686214812426    7.31155952370009
C         7.14681299896175    3.73432886459178    7.42139720220667
C         5.52689010910406    5.21888041735226    6.02092640741340
H         5.71704050760943    6.24078038693562    6.35941740777114
H         4.69227969334098    4.81961540260413    6.59568131346900
H         5.22752720119007    5.25460250429900    4.97394396895133
C         8.06329199586710    5.14663766220999    4.06548046028212
H         8.61392398152868    6.07143310392120    4.25425376400197
H         7.09282863721976    5.40770736752749    3.64752150101673
H         8.61687845733158    4.56369616870434    3.33117660892303
C        10.38948361869245    3.71423879206726    5.52860098152084
H        10.85539861806964    4.68778251124355    5.70033067302720
H        10.41845487527625    3.50067157745472    4.46061784109775
H        10.97683007356554    2.95511478833510    6.04005468428616
C         9.35962842316235    2.96207824396994    8.48073882034119
H         9.61705547670115    3.86137160669316    9.04699599762984
H        10.28476112452908    2.48533010939966    8.16666948170623
H         8.82803749197537    2.28678491239320    9.15103240490992
C         6.33869107796179    3.68605706219706    8.68422150945387
H         6.55067538387804    4.56471963079635    9.29895930534365
H         6.57548014836417    2.79789432920078    9.26866678915819
H         5.27189120623141    3.67094328820494    8.46638433511128
C         6.22786219874097    2.50755083728694    3.94841179962709
C         5.35858471731887    3.09662398748369    1.60921403408247
C         6.61483216890339    3.62606773866801    0.90901629434302
H         6.43900051295593    3.70799959037065   -0.16066251213416
H         7.44648469723905    2.94784923189445    1.08559770910629
H         6.88459859332244    4.60522248893749    1.29574245773711
C         4.88168803555564    1.80536389714567    0.93452152649857
H         4.03578240237146    1.38272551678272    1.47293542268004
H         5.68508949447258    1.07268714333635    0.91393897063552
H         4.57345549400774    2.01546660593512   -0.08642465745907
C         4.24296848781022    4.14651299395101    1.60084000063316
H         3.35719987586340    3.76451191382824    2.10357079373450
H         3.98287750484615    4.40351739684618    0.57749431262663
H         4.56775492550591    5.04898600695350    2.11402141070270
C         5.46105052010094    1.41816104454177    6.08783193531688
C         2.99267019551564    0.77299541817807    6.21030716287481
C         2.36736979886511    1.74985302476925    5.20661208065118
H         2.46849733914651    2.77277965626954    5.56176551500814
H         1.31240492450430    1.52535323100605    5.07162347594590
H         2.87572928690894    1.66937600204384    4.24840546563366
C         2.33431585920802    0.90527801230625    7.58585658137011
H         2.41237584810960    1.92856044910060    7.94609279091653
H         2.82763892729888    0.25030671343735    8.30024521159349
H         1.28351597960999    0.63444281216433    7.52570569653267
C         2.87786437812902   -0.66645727994461    5.69554037244240
H         3.42361022874574   -0.77835833651423    4.76063519415674
H         1.83360021522020   -0.91838755044597    5.52874821087028
H         3.29331083404435   -1.36094045954245    6.42094702204272
C         9.50046356898850    0.55568072385538    6.52185139743736
C         8.12487773125884    0.27935581729654    6.37270349113259
C         7.52188129150377   -0.52620528822255    7.44757795523714
C         6.30870235801445   -1.20319327852776    7.30116404094872
H         5.78653885821879   -1.17617463620803    6.35793850684967
C         5.76765703660956   -1.91572237648534    8.35319499890557
H         4.83048770085133   -2.43820065554048    8.21658867951325
C         6.41425085273375   -1.97576118323037    9.57654227870714
H         5.98449901834838   -2.53353373163839   10.39561270092698
C         7.62334561924697   -1.32002134729396    9.73351398691372
H         8.14586153311077   -1.36573727506721   10.67850603975899
C         8.17198382039478   -0.61054779967167    8.68345437840982
H         9.12576695218057   -0.11874339997510    8.81649004766381
C         7.77175382121775    0.17605479749416    4.96453720267223
C         7.10921174105229   -0.96865688571726    4.34142127018175
C         6.09648100701112   -0.81127097405178    3.39470980716339
H         5.73873662092705    0.18664004574084    3.18191934046397
C         5.54373300096275   -1.90940807171074    2.76342476740749
H         4.75704483534830   -1.76991046095647    2.03462184282634
C         5.98940375953321   -3.18654422666263    3.06379770666724
H         5.55475207502537   -4.04349310481215    2.57131180008738
C         6.99428767696476   -3.35615443225885    4.00307680666729
H         7.34698448067657   -4.34868705059169    4.24284252783343
C         7.55336843987103   -2.26311204731808    4.63489270404581
H         8.33728014250659   -2.40230998776211    5.36662421414050
C         8.38888681073779    1.23388913371720    4.23151812593108
C         9.93867827979754    0.65453853164884    2.46674082032402
C        11.07677869503485    1.52072798402564    1.91800599478653
H        11.71040720621859    1.85790179886949    2.73459869099270
H        10.66967420310828    2.39318885233143    1.41228438949601
H        11.68226316381854    0.95440898785998    1.21474090230070
C         9.08080043961065    0.12145806006204    1.31177364628105
H         8.23561617236705   -0.44372387351272    1.70130989935246
H         9.67599273867740   -0.53078849978951    0.67697958842545
H         8.70319197263719    0.94481521575617    0.70894974814543
C        10.51419085036952   -0.51623955054290    3.26840012734149
H        11.00149797314568   -0.15042755977910    4.16992116659038
H        11.24517964562315   -1.05236798809064    2.66748302039126
H         9.72771176225953   -1.21055086256084    3.55472271958485

