32
CSD_code = PABWAQ | q = 0 | S = 0 | Stoichiometry = C12H15HgN3S | MND = 3
Hg        2.02836116340152   -0.39945165223734    1.50307395250123
S         0.64431555362030    1.71168676225580    1.01373364671090
N        -0.29057891590766    2.51865042189518   -1.26567371849310
N         0.99146391624657    0.68819890756229   -1.52795788377214
N         1.74369400951124   -0.33750058242127   -1.05115020512510
C         0.49100521947342    1.56382685678478   -0.71931950504381
C         2.21642888282486   -1.15486339316370   -1.91176200832884
C         3.06246274611735   -2.33561626774508   -1.55066670838711
C         2.98228662245407   -3.22565306164464   -2.79256172232251
C         2.89351604742089   -2.22255210046577   -3.94470846082788
C         1.99898795856717   -1.11003757930858   -3.39489024779528
C         2.68570244035099   -1.23805671278514    3.47839899542835
C         2.31573344557484   -0.55606521287949    4.63751004289480
C         2.68481848520261   -1.02776407754647    5.88794795883624
C         3.42933772022904   -2.18802596793981    6.00290537000348
C         3.80419705186227   -2.87407460960608    4.86185273866303
C         3.43684155174684   -2.40490017345414    3.60994069802506
H        -0.34393716656514    2.58708968195529   -2.26697786215354
H        -0.58340676163660    3.28869579767083   -0.69148316027052
H         2.71987319007319   -2.82770762553711   -0.63727868800749
H         4.09247900404243   -2.00259681614880   -1.38945017521160
H         3.83706651135684   -3.89376396100165   -2.88352651132307
H         2.07431217202438   -3.82966431299802   -2.75480950498726
H         2.49442446736059   -2.66896457482223   -4.85396341697699
H         3.88626858291811   -1.82653036903450   -4.16491350764202
H         2.22755964230352   -0.12217793424036   -3.79535898693230
H         0.94242701895803   -1.30257272741714   -3.59808849029922
H         1.73140881093658    0.35686707073509    4.57312064743785
H         2.38741069021992   -0.48401029304834    6.77319357595549
H         3.71644325431108   -2.55620015837905    6.97728051368034
H         4.38629829940409   -3.78136474770321    4.94082492302082
H         3.74519838560053   -2.96260058732904    2.73385770075021

