57
CSD_code = PABWAR | q = 0 | S = 0 | Stoichiometry = C17H34Cl2NP2V | MND = 9
V         7.52340019581681    4.62736998379903    4.89716659822650
Cl        5.26194552471529    4.73584586163256    5.26720257425124
Cl        8.58537372582512    5.48960606450123    6.73464499596539
P         7.01929902648861    6.91487343251356    4.78542790775322
P         7.11429461745053    3.01996396741547    6.54642382602505
C         7.95698427536512    4.81712599818399    2.79506163320932
H         7.64656333000775    5.56282870939395    2.07733750893740
N         4.48771230650998    2.57279863757213   -0.05394656899836
C         6.18407778920318    2.97217005849065    2.27006035790470
H         5.64948103730984    2.33082120229402    2.98539515485169
C         4.02841985518896    3.36689443335972    1.07203829418722
H         3.47491063291333    2.74815362360979    1.80351233712483
H         3.34432069212741    4.13018294146443    0.69179713517491
C         9.14401275012795    4.88086816210940    3.57501653638068
H         9.87910228251360    5.67325185240221    3.55106853051473
C         8.21349787861919    2.82470697613968    3.84182389888754
H         8.11309700835345    1.77133444074547    4.06663249833090
C         5.21166786815446    4.03505114638976    1.76172128040051
H         4.85618368068859    4.64397153313044    2.59492627991314
H         5.71420815458751    4.67632930328084    1.03545899869801
C         5.37548182008445    1.51744502354951    0.39484430644683
H         5.68176691684744    0.93455645985101   -0.47857194375204
H         4.86279190183776    0.83206106898188    1.09826221687668
C         3.38392933239199    2.04862803416810   -0.82523199330578
H         3.77396665590644    1.50345734460190   -1.68422763648448
H         2.77562070841020    2.87706876118027   -1.18616441125487
H         2.73931918565456    1.36916963151628   -0.24302838355492
C         6.60609017127674    2.10918480050568    1.07326728926424
H         7.14608575004501    2.73082461062043    0.35596321447081
H         7.26947754417066    1.30324647702110    1.39613401902824
C         7.39226245503594    3.54076262629419    2.95083334955526
C         9.30016785261923    3.64577663878508    4.21713187821794
H        10.15393392487516    3.34244243140921    4.80744399465925
C         5.97266929678283    1.62849216950686    6.18115568461606
H         5.84437402796766    1.01739349688890    7.07499657908818
H         6.36797836230657    1.01032534847230    5.37792777759360
H         5.01093389273136    2.03862598195785    5.87788580469685
C         8.56563841702969    2.12505420054548    7.21924891901754
H         8.25738963356837    1.47932148635802    8.04215298924618
H         9.28332958636424    2.86081189836480    7.57946618484069
H         9.02826827629239    1.52288213074908    6.43928850440030
C         8.41423561313658    8.06395429753434    4.47979671528245
H         8.08606585618441    9.09409928149390    4.62086540735447
H         8.77621820755479    7.93525457141893    3.46087740540528
H         9.21376981948497    7.83456629729295    5.18260558202410
C         6.30659788805283    7.67116204691057    6.29449607477277
H         6.04426549509235    8.70788417848001    6.07892565103490
H         7.03912412280095    7.63252122765625    7.09885686130825
H         5.41530507429487    7.11958775676945    6.59156690196334
C         6.36202899796298    3.61248507684491    8.10868778149707
H         6.24425591502554    2.76625318548698    8.78721937556459
H         5.38906118331374    4.05470964017844    7.89838164388384
H         7.00915810832519    4.36237848251503    8.56051248402123
C         5.80380970592403    7.52148405037736    3.54960463476699
H         5.71116801608905    8.60460281944532    3.63454455288306
H         4.84028915084443    7.05533751067221    3.74593520262584
H         6.12521850175207    7.26624062716855    2.54247560421412

