81
CSD_code = PABYOJ | q = 1 | S = 0 | Stoichiometry = C38H32Cl2F3N2OP2Ru(1+) | MND = 6
Ru        9.71902237862711    0.90000722073192    3.22271161318622
Cl       11.20755540092308    0.39347519496910    1.41171630660672
Cl       11.43315960191330    1.63544002507088    4.48580424651743
P         8.48211759081182    1.30120826298618    5.19055548425471
P        10.00694857039073    2.95642089969330    2.09471545971317
O         7.52544199825276   -0.13132111838261    1.78208959358535
N         8.42317769839674    0.32144947706466    2.34943487396986
N        10.01774099801378   -1.14357532750612    4.34289937703928
F         6.13996159009708    3.35080042547711   -2.36155611634819
F         8.81640884862756    7.38579145383306    5.81583848931735
F        15.00752471986819    4.78122156495747   -0.47555411486396
C         6.75567293858533    0.76464437946274    5.00234023988766
C         6.15406821879489   -0.13216290163477    5.88014594802095
H         6.71489143330225   -0.53653743061541    6.71112606722539
C         4.83515505112825   -0.50438672360737    5.68412860333554
H         4.37151696063149   -1.20171582023717    6.36475131566286
C         4.11290989768983    0.01326699190996    4.62122743803043
H         3.08647108213168   -0.28296055700531    4.47234842826216
C         4.70758789604346    0.90947056599930    3.74593439564544
H         4.14689376209736    1.31167478241673    2.91645649409813
C         6.02477147345080    1.28257985116698    3.93349797676061
H         6.50013989151791    1.97920708711903    3.25073384790624
C         8.38410367850313    2.80119574170061    6.20384444842351
C         9.55568316219603    3.35697296329836    6.71756676931681
H        10.51377880007411    2.92245741709330    6.47380071460192
C         9.48650247276356    4.45792127868638    7.55016087519478
H        10.39444949752522    4.88299220230283    7.94957154278975
C         8.25758271879141    5.00796645359163    7.88112124551681
H         8.20795271407678    5.86509955908887    8.53419690388068
C         7.09342072503163    4.45758276125686    7.36978351066148
H         6.13541726482766    4.88147363969521    7.62972213634601
C         7.15000879801339    3.36109703972751    6.52812064783162
H         6.23869012211163    2.93573353893538    6.13343888308003
C         9.22434636167706    0.08749987247698    6.31921987968490
C         9.09215137638142    0.22637796653358    7.69886583177620
H         8.54218904315559    1.06663802679103    8.09786630174868
C         9.67180020359394   -0.69519059428433    8.55007412767797
H         9.57314586507453   -0.58057136059303    9.61784038340473
C        10.38319809611807   -1.75894732087483    8.02231666096806
H        10.84338998938706   -2.48180393188484    8.67742646624196
C        10.51032073070187   -1.90808787626019    6.65158171172675
H        11.06329657036494   -2.75251116562149    6.27289541955021
C         9.93685027974871   -0.98796095835452    5.78269981383731
C         8.97054026208459   -2.08931999643845    3.92395863185067
H         9.11180034077224   -3.05874766170328    4.41377243192351
H         9.02065161466897   -2.24082346051119    2.84434771347111
H         7.98323670102120   -1.70772967352868    4.19612988202834
C        11.32665395528280   -1.66038927440179    3.92024993871629
H        12.12038077544394   -1.04715192309415    4.34826565337019
H        11.39526061922698   -1.62010664248705    2.83242269607026
H        11.47051816049806   -2.69928935979583    4.22576081066778
C         8.79053813112658    3.10874604459588    0.75049880299535
C         8.63291526881014    2.03330601029502   -0.12476362367722
H         9.22848511468936    1.13881585858957    0.00324418897960
C         7.74232886576580    2.10767034245252   -1.17777172145809
H         7.60978892991110    1.28274814100668   -1.85922850630601
C         7.01379326065342    3.27315487586157   -1.35419894300074
C         7.17450366296102    4.36652198882129   -0.51750576964281
H         6.60795768279210    5.26628646517454   -0.69801228471753
C         8.06938324961289    4.28315240261462    0.53197319386244
H         8.21123451582798    5.13907892337884    1.17523748359729
C         9.64924034281608    4.32201827056203    3.23705698787013
C        10.68448096618050    5.09469075284031    3.75771532558348
H        11.70660223542725    4.88814786422286    3.47569844095973
C        10.40937590926894    6.12569286533579    4.63565053101007
H        11.19742644807448    6.73262694439470    5.05187575215584
C         9.09115471278149    6.38357806618235    4.97236629759224
C         8.04410402624098    5.62731337615355    4.46963636915665
H         7.03028939568390    5.86184141174348    4.75126314882102
C         8.33350580252711    4.57877482972761    3.62068274330282
H         7.53182918502703    3.96369085326262    3.23470430799272
C        11.57841326486834    3.45848525282941    1.32461229349706
C        12.82178718025753    3.05062966072621    1.80300090548559
H        12.89388253100387    2.37360013972502    2.64085926081293
C        13.98147424314280    3.49471135157641    1.19898425310089
H        14.95039462393343    3.18167983451038    1.55412730611844
C        13.88794383035636    4.35033905484431    0.11360423981109
C        12.66273498402770    4.77230260563177   -0.37655257484492
H        12.62439959445939    5.43593611877196   -1.22558425205684
C        11.50736064771297    4.32339315365944    0.23250293819368
H        10.55011249399002    4.64369097481187   -0.15044509523527

