36
CSD_code = PABYUO | q = 1 | S = 0 | Stoichiometry = C16H15ClN3Ru(1+) | MND = 9
Ru        0.79004704167090    9.44726423282884   12.19340718812973
N         2.29775806504642    8.24994982933572   12.76693286308148
C         3.01506320364686    8.40584459726072   13.88637740740301
C         3.89111592829888    7.41124599610522   14.33520651464968
H         4.43681991817227    7.55775289468866   15.25387076252738
C         4.06042004424390    6.26726477214001   13.58477247672382
H         4.73806867080203    5.49486215849889   13.91061161006500
C         3.35879070494111    6.14400842198503   12.38977078224142
H         3.48416415121426    5.28391847968087   11.75417308743765
C         2.49389862248916    7.15250516600498   12.02537990580628
H         1.94648522436880    7.10895678600230   11.09048980531674
N         2.88767975296845    9.56468260696916   14.62966391818572
H         3.43567722400150    9.57009591856356   15.48111460128928
C         2.54122503066337   10.82391995414988   14.17625824507904
C         2.69586075497947   13.20583937038043   14.42200543573979
H         3.04253882494715   14.07821183608199   14.95187240550568
C        -1.12182064664263    9.70328557864314   10.93014644484750
H        -1.26192898204143   10.14641429095737    9.95035526539439
C        -0.87395899623813    8.30917048928633   11.03639175995717
H        -0.83975148644046    7.70068787573483   10.14014493393984
C        -0.76776388289165    7.71941916570260   12.29993935637859
H        -0.65372771930043    6.64412081021271   12.39002423446976
C        -1.29614457061913   10.47616384000696   12.08359287049104
H        -1.59614505175834   11.51504617461288   12.00594778501897
Cl        2.12880659345514    9.91538337354552   10.34147799613268
C         1.52984396773493   12.18290963872346   12.61551360794386
H         0.98213330630269   12.23135958005924   11.68124580557586
C         1.96455590340462   13.32876486679636   13.24498794040641
H         1.74016108464607   14.29437322810376   12.82464242871764
C         2.99345941293279   11.94204476390452   14.88566231858120
H         3.58341854753205   11.80326168303947   15.77781796294347
N         1.77978520766464   10.95327055402994   13.08254852656449
C        -1.16331527711714    9.87677138548404   13.36265815741090
H        -1.35554269128119   10.46574358905553   14.25283878602130
C        -0.90213840915231    8.50440830458641   13.47476227581987
H        -0.89543947264398    8.02697778683976   14.44709453420414

