67
CSD_code = PABZAV | q = 1 | S = 0 | Stoichiometry = C33H29N3PRu(1+) | MND = 8
C         7.22819252848888   13.85518381846391    4.91390113794077
H         6.87175992931172   13.29221366046438    4.06014806269526
C         7.63340373154962   13.20419861243565    6.05549344748542
H         7.62231847842340   12.12835027015219    6.09650799693278
C         8.04660688540110   13.96424972159418    7.14557540147035
H         8.37008394159086   13.49566782815686    8.06052271656648
C         8.02330728945294   15.33519514198312    7.02798703506739
H         8.32703659817949   15.96575418359672    7.84901912930610
C         7.59354220342937   15.92499496203682    5.83149748275053
C         7.05780523025254   18.18449086805645    4.86041324381089
C         7.11462128345686   19.54799056062843    5.17701636056311
H         7.58464210760725   19.85823703150457    6.09729559708711
C         6.57064417945082   20.47418115347879    4.31459175282134
H         6.60576580929082   21.52652098511190    4.54415759158152
C         5.96624970698085   20.01178851939846    3.14960865609061
H         5.51061770218458   20.68995760610232    2.44830835787185
C         5.95567243121991   18.65782385575444    2.90222853530305
H         5.46704431840162   18.26707137625455    2.01869591782737
C         7.49910097021615   16.57388023150311    0.83536436109385
H         7.06549138328014   17.27936917132676    0.14000895118192
C         7.29375766858482   15.16790428920407    0.82657990383365
H         6.64046698723536   14.63536279244732    0.14695620869256
C         8.23170472682428   14.57269308032981    1.71129627997409
H         8.45310488825542   13.51669633841621    1.78892946730430
C         9.03230085711208   15.61824046164351    2.25267335626233
H         9.91300012703439   15.48198350141608    2.86597533190036
C         8.58803322648720   16.83947298043688    1.70959232459960
H         9.06177939353181   17.80240678434549    1.84924603181697
C         4.05017543144979   13.75666473827050    2.35218226278485
C         4.92454107125306   12.78944595276732    1.87236945641003
H         5.99150361866601   12.95567343189842    1.93744199031495
C         4.43444000956577   11.62576426426451    1.30541338472679
H         5.11862869110571   10.87937533141796    0.93046883332065
C         3.06766889468828   11.42201772940317    1.21698317372249
H         2.68481755168831   10.51691816537789    0.77134889113616
C         2.19039722412865   12.38149628310540    1.69973765575172
H         1.12498797595643   12.22187314186551    1.63273258408925
C         2.67515989829107   13.54524608617604    2.26557475425910
H         1.99237251923741   14.29390077550199    2.64218284254554
C         3.44866248512129   16.47519315358051    2.47377321600206
C         3.58117242172677   16.78707664582582    1.12075722152806
H         4.37632701403883   16.31939948669986    0.55081279764058
C         2.70452566870615   17.66721232352853    0.51715372901202
H         2.80667985237899   17.90021918780317   -0.53207715281467
C         1.69034148968519   18.24855764261088    1.26361394914257
H         1.00451417532944   18.93798685123042    0.79596112355804
C         1.55229174524918   17.93849265926785    2.60596556148756
H         0.75590806017413   18.38336186166020    3.18332032767932
C         2.42543587048719   17.05226573518990    3.21531975841446
H         2.30069538204596   16.80370296486011    4.25938478257049
C         4.21971163873080   15.05957470742677    4.87314178655144
C         3.92839774406734   13.81224787395487    5.41350822618988
H         3.85061936398668   12.94888511329941    4.76844173722286
C         3.72991387325248   13.67697372795602    6.77726273286160
H         3.49769351679932   12.70702389592212    7.18986123984117
C         3.82921453927435   14.77791007528695    7.61031253630693
H         3.67393106045901   14.66834522403029    8.67248939181201
C         4.12541760778850   16.02404675336407    7.07847003471534
H         4.19646898815261   16.88539082425099    7.72633851050609
C         4.32740478188994   16.16378126221194    5.71906339680454
H         4.55792770908331   17.13471093290622    5.29600909916064
N         7.21095431009551   15.18982203314549    4.77828936203309
N         6.49603827168710   17.74448284584528    3.72422167486902
N         7.58420167338382   17.30096537488680    5.77729998258820
H         7.95798333512806   17.74579688414298    6.60535111310076
P         4.67136949692649   15.28809489147287    3.12121577926357
Ru        6.87905045507594   15.92092338136392    2.90481161306170

