45
CSD_code = PACCUT | q = 1 | S = 0 | Stoichiometry = C13H27BFeNP2(1+) | MND = 8
Fe        2.26204827521540    9.00791150345598    8.53900962340452
P         0.87405378439820    7.83577717958599    9.65935800346417
C         1.61441293670026    6.51050697470727   10.68225152542101
C        -0.56990868735595    6.98078915630332    8.93814753322668
C         0.10360805063547    8.93542091971002   10.92752067844962
C         1.21397331656290    9.75826168971742   11.57038460417739
P         2.44907866065544   10.26036072707181   10.27136386899696
C         2.18652014387165   12.06722733690540   10.13520977261772
C         4.00566718180559   10.21871600070590   11.23360347047975
C         2.71273696717516    8.26415997433710    6.65358567862880
C         3.45920817447501    9.44989426710860    6.89097707312497
C         4.27942711222476    9.22120024530905    8.01992780602632
C         4.04863104168599    7.90543893959333    8.48692410648750
C         3.09043599295858    7.31424018113161    7.63540495597078
B         0.94952844787134    9.98472863342603    7.75863568618988
N         0.12785260437857   10.61955097599400    6.91811398274336
C         0.16147704025256   12.04989356369389    6.68105154616032
C        -0.87854464038837    9.92740251540956    6.13485048649989
H         2.46687201023167    6.91028563471287   11.22745730716228
H         0.88294054344074    6.10870232464108   11.38282023994035
H         1.96479339820670    5.71197450067700   10.03165546822056
H        -1.23295610530215    7.71364741654101    8.48391786935974
H        -1.10845433729543    6.42661421922218    9.70668522929274
H        -0.22829734388039    6.28792540277827    8.17066224266055
H        -0.45486241961003    8.35795518229448   11.66916009349442
H        -0.59488169047303    9.58779577592241   10.39574621337669
H         0.81978444774019   10.63866704746425   12.08380664807468
H         1.74609149028105    9.14798585529175   12.30476520835213
H         2.87263318201238   12.46245817102396    9.38795328395176
H         2.36996736239521   12.56052654228717   11.08936516670631
H         1.16509575279999   12.25604637234952    9.81183759512558
H         4.78393530550298   10.74670421422185   10.68665301479574
H         3.85968522598165   10.69930386114211   12.20101049903123
H         4.31776320949737    9.18706040285371   11.38112750520259
H         2.08692529178054    8.07098203922242    5.79996808168637
H         3.49003867233301   10.31683141743327    6.25497451763187
H         5.02894324156706    9.89852803572119    8.39078839078490
H         4.61050290042126    7.39943922705371    9.25096337829799
H         2.77035801395774    6.28634687959867    7.66024954621295
H         0.33023569385773   12.24949144653089    5.62060870510989
H        -0.78756265826151   12.50698707377650    6.97136650038343
H         0.96671937216878   12.49817858024812    7.25754184035479
H        -0.72013702124683   10.11763832446335    5.07114486003920
H        -1.87864689149511   10.27605088238407    6.40318283795436
H        -0.81009304973504    8.85739238597803    6.31636735472557

