47
CSD_code = PACDON | q = 1 | S = 0 | Stoichiometry = C24H16N4O2V(1+) | MND = 6
V         2.78027885115890   12.32796215280931    2.95728174154746
O         1.97449263748545   13.61205119262910    3.17450489596097
O         3.17578491460095   11.70826891939149    4.30073053275134
N         4.46262759711864   13.30006149372109    2.62646461207216
N         2.65950393262338   12.74323897686657    0.71054930501773
N         1.24772379523072   11.11350566120984    2.71273945199862
N         3.75620863751024   10.52730785677742    1.94262419884864
C         5.32496088718261   13.56300254411990    3.58770331214139
C         6.37334241880821   14.47671460807174    3.42607347511272
C         6.51327810999994   15.14041549012231    2.23013506529809
C         5.59914318896963   14.88083748467782    1.19420697423093
C         5.64390429458840   15.53910979940467   -0.06960846508198
C         4.71482880620282   15.28624642321475   -1.02333741551045
C         3.66910201409136   14.34439125017595   -0.79935231684734
C         2.66851376285559   14.06564337536073   -1.74623928793886
C         1.69474454810271   13.14729579700607   -1.43602883454580
C         1.73458524001783   12.50645945695171   -0.19175777865103
C         3.60787331281662   13.65193485949977    0.43231525899498
C         4.57988515517376   13.93349438830015    1.44728948175512
C         0.03011495387849   11.42676203273218    3.10758363690056
C        -1.00000577052571   10.48175502467575    3.18484274081790
C        -0.74339626627850    9.17300393322893    2.85060330433599
C         0.55114032500484    8.81578663340930    2.43492929832605
C         0.92215052900389    7.48156157659353    2.09606398803311
C         2.19468820599698    7.17779406749056    1.74234626898513
C         3.20193399667620    8.18431805439598    1.68510750779430
C         4.54025511933657    7.91600873736533    1.34996504150626
C         5.44269772853142    8.95192757115586    1.32994549905249
C         5.00088053296752   10.24613022459188    1.63045591472558
C         2.86486599382843    9.52430782099819    1.98685804210271
C         1.52327250123034    9.84154338586314    2.37881617642775
H         5.17190103892284   13.03649114161959    4.52441193053938
H         7.05128590095316   14.65764952349260    4.24502249574562
H         7.30299375747292   15.86100228587478    2.07744263357761
H         6.43140259750424   16.25689921815560   -0.24105792711399
H         4.74258494787654   15.79933644637875   -1.97257195271971
H         2.67373396103692   14.57705084007384   -2.69719381805680
H         0.90590642707153   12.91411415446173   -2.13317335605455
H         0.97835310693465   11.77272730180608    0.06415818286944
H        -0.13117206805806   12.46434567344602    3.38246097603154
H        -1.97913477023535   10.78931644305252    3.51614476558031
H        -1.51241746076492    8.41735651041179    2.91135524438094
H         0.16340085690885    6.71554659788809    2.14349117310609
H         2.47519471871502    6.16328992888372    1.50309703303340
H         4.84234690877386    6.90545299096635    1.11910263762619
H         6.47954593359949    8.78330573356347    1.08662706620026
H         5.69909418910019   11.07547441711460    1.60977128909175

