107
CSD_code = PACGOP | q = 1 | S = 0 | Stoichiometry = C52H48As4ClNRe(1+) | MND = 6
Re        8.53247825164020   18.33525976065592   18.05253978925119
As        8.69028992393741   16.10112264606461   19.20465143908624
As        7.50945497654364   19.03920159570978   20.27989405903250
As        8.64409358224776   20.61594740185211   17.06126975625741
As        9.71119952559929   17.67279760789989   15.91263894114702
Cl       10.67102473141700   18.88774387363553   18.81275219556262
N         6.96398171616689   17.85551942933365   17.48042170906025
C         7.05615799973958   16.14836766559693   20.30285019693667
C         7.08512357187915   17.34883077210002   21.24631499931325
C        10.15972478488720   20.56232054762642   15.81166750391420
C         9.98712082120575   19.34977107375104   14.90039669801747
C        10.12544397719163   15.59077881391499   20.41033734947625
C         9.89843058656182   15.15955598577430   21.71447674258814
C        10.96645022614332   14.82053557857025   22.52811376831279
C        12.26399442729992   14.91143622939522   22.05121767028724
C        12.49716831361659   15.33430238639059   20.75288850964004
C        11.43259797902297   15.67294610398844   19.93714526483769
C         8.41142367841024   14.52768607768101   18.10602700692739
C         7.60761696290642   14.68958114597141   16.98139826058015
C         7.40025071956639   13.62863254470396   16.11821798009438
C         8.00057485865106   12.40562061128968   16.37591646335179
C         8.80091424495791   12.24037780462937   17.49522829791098
C         9.01350149183851   13.29986066134068   18.36233524087259
C         8.40360870406719   20.03327924109162   21.69683783931959
C         7.96564152835336   19.88809100359028   23.01321898775743
C         8.58249102665994   20.58920680891475   24.03325357346926
C         9.64184003985377   21.43882833999700   23.75320232534111
C        10.08183926505334   21.58767445491337   22.45023981617573
C         9.46400620839143   20.88786764598018   21.42734372814396
C         5.75782974401349   19.88865303446973   20.18095383488725
C         5.34663744530776   20.89376431108353   21.05106736311603
C         4.08759320107727   21.45314620013409   20.90893702035232
C         3.24165621483359   21.02108729572322   19.90037885778794
C         3.65294280649111   20.02916294422959   19.02440384776786
C         4.90882382031414   19.46601725084272   19.16324303122497
C         7.20203948924797   21.22385301095529   15.91665343150859
C         7.25786159423346   22.47878337602680   15.31846534892572
C         6.23330135552102   22.88976409745950   14.48551646694245
C         5.15215523602324   22.05315153241399   14.25218850082574
C         5.08854694277759   20.80785776669959   14.85472023608959
C         6.11305307685097   20.39356736074449   15.68889396327610
C         8.91720493412466   22.16216512836653   18.18539487078905
C        10.13003243938683   22.82881137697165   18.31172341872200
C        10.24997640363739   23.87474447901525   19.21330963305462
C         9.16917124670714   24.25010115513177   19.99337062065340
C         7.95598811873231   23.58887891305084   19.87093231161099
C         7.82968123623050   22.54750261957920   18.97053227792388
C         8.84144685544800   16.63699464336768   14.52065595645998
C         7.48269417734768   16.86853504083986   14.33402650030269
C         6.79514420077175   16.21057996888365   13.33133758481102
C         7.46461297892726   15.31413395163485   12.51273083071819
C         8.81765731147428   15.08093220684871   12.69468445063503
C         9.51064356592203   15.74136611755815   13.69583338777489
C        11.44949853122636   16.83997846866607   16.08435594570912
C        11.48054308585367   15.47988826001015   16.39600683890841
C        12.68936262394258   14.84196124907605   16.61198605226311
C        13.87320404516624   15.56017280725134   16.53519864454140
C        13.84756734879196   16.91274334946086   16.23885313163165
C        12.63993789470421   17.55368573518866   16.01514158603347
H         6.91227905967609   15.20464061409721   20.84727101042582
H         6.23846262008748   16.25608114876771   19.57478069706955
H         6.11884133391934   17.46279083034906   21.75745942641676
H         7.86881237585894   17.21705281677369   22.00679767777581
H        11.08805187160675   20.48744325822553   16.39318639514343
H        10.18797411867773   21.49752746388694   15.23169699705873
H         9.07591243800530   19.47676149654233   14.29209949453800
H        10.83660947416553   19.22100141132463   14.21331815567581
H         8.88475968782152   15.07508360748900   22.09341260179461
H        10.78475080770190   14.48592773733686   23.53878587106171
H        13.09289423073105   14.65195700187415   22.69195672057971
H        13.50713070405857   15.40477849528807   20.37639828378031
H        11.60921271086698   16.01142289773437   18.92004991782253
H         7.15327414867729   15.66529097391106   16.80446231732303
H         6.77932727970952   13.75704307917362   15.24439110611746
H         7.84631134468890   11.57784228663186   15.70070910060845
H         9.26433833901453   11.28499456870483   17.69128870908754
H         9.64850071033308   13.18438934963135   19.23634901402590
H         7.13043290309551   19.22890304085350   23.23287402914940
H         8.23698569244033   20.47301305907947   25.04978899766862
H        10.12280046326031   21.98196151761083   24.55229723321037
H        10.90774648862670   22.24648555414643   22.22629882114243
H         9.82117557148061   21.00228636466241   20.41051152447886
H         6.01725904948485   21.24065225754439   21.83100388756307
H         3.76733539895145   22.23099098557286   21.58613267132519
H         2.26292894885601   21.46349216488935   19.79388044547793
H         2.99670612846880   19.69801074506968   18.23377829141324
H         5.26362946708540   18.69990499306857   18.47464827940887
H         8.10571704539107   23.13024635203944   15.51863314730520
H         6.27500062546670   23.86245026003039   14.01853708245296
H         4.35519871005347   22.37837984160752   13.60085321480039
H         4.24195320206475   20.16208213479367   14.67599285998544
H         6.08563923766461   19.42471620296273   16.18523160049596
H        10.98286526914789   22.52683284290806   17.71223090392439
H        11.19240533568686   24.39382103996787   19.30926425378714
H         9.27174686577471   25.06052173859284   20.69878263094666
H         7.11187830615486   23.88379920562270   20.47623689132790
H         6.88366748491389   22.01576242675711   18.85331085769866
H         6.97498101282234   17.55773650785545   15.00548904380674
H         5.74017050858990   16.39132427181164   13.18898306895711
H         6.93046565433372   14.79484646678866   11.73150313488759
H         9.33684780312896   14.38407454685220   12.05391045138921
H        10.57233712388904   15.56429279831072   13.83625393466817
H        10.53956829784402   14.93332693844114   16.46666455753186
H        12.70577245588502   13.78892569947957   16.85124981634084
H        14.81644983415353   15.06591906773783   16.71159341520756
H        14.76985765338223   17.47263947180875   16.18744319444835
H        12.62698215743480   18.61604500134985   15.79341620498882

