100
CSD_code = PACLIQ | q = 0 | S = 0 | Stoichiometry = C37H57ClP4Pt | MND = 4
C         3.79761415583526    9.05522287384266    7.32905963049490
C         2.85301103723597    9.53402868424529    6.42324215117437
H         2.08503359051560   10.21998917714795    6.75607521018260
C         2.90693374846714    9.14126762216377    5.10132583418178
H         2.16931841580567    9.51120524205107    4.40249635575799
C         3.89760637474477    8.27197996014525    4.65075678191202
C         4.84220547514595    7.80902074684278    5.55712305327672
H         5.61925893055536    7.13620016166701    5.22376832897888
C         4.79513422938501    8.19740061977951    6.88311400244369
H         5.52496902904483    7.82339006500079    7.59394805466729
C         3.93789664073416    7.86459868871549    3.20994571449044
H         2.96671886224877    7.48797472525769    2.89280218240191
H         4.68427122979353    7.09217086312190    3.04397987845920
H         4.18201182444727    8.72241338392949    2.58309271747447
C         2.27918045091519    8.77278961850412    9.77400895528620
C         2.18845026614071    8.73236958502957   11.16374581244416
H         3.00360746308578    9.12495407540036   11.76065673030905
C         1.09031410251468    8.16883658386789   11.77735928419282
H         1.03299489808408    8.13787004964434   12.85644452432442
C         0.05937655144129    7.62083690369114   11.01979658476501
C         0.16540645209140    7.64801536560472    9.63633755422945
H        -0.61770895367544    7.20982536309287    9.03327744794883
C         1.26327415137527    8.21488526484871    9.01272325891882
H         1.33251843867558    8.20104708827712    7.93472993259839
C        -1.12090870096961    6.99463994910259   11.69708063250640
H        -0.81130770133264    6.09826183663355   12.23410137740227
H        -1.88406338496635    6.71685764729501   10.97441687345720
H        -1.55563142063620    7.68239273019568   12.42130676974590
C         3.35110082184807   11.28530123770748    9.02252924484399
C         2.62891686632577   11.87582155099623   10.05542233137908
H         2.23096598815313   11.26226187092768   10.85137780912597
C         2.40499313376345   13.23910261964875   10.06608678386170
H         1.83946584515220   13.67985881970737   10.87500464870456
C         2.89780924131392   14.05346247340386    9.05326779212380
C         3.61715938368358   13.46072795054173    8.02185165021699
H         4.00585446768437   14.07489015223286    7.22153702806868
C         3.84631515230225   12.09894924363984    8.00705229892412
H         4.40707797429044   11.66100645063847    7.19355255464666
C         2.63902201526927   15.52841292222628    9.05981562319209
H         1.69242745738854   15.74176519656924    8.56187350074401
H         3.42487130622177   16.06310580745320    8.53127154947911
H         2.57463866217300   15.90658071864524   10.07754137906782
C         8.26209288411128   10.82066995302978    9.01369496566759
C         8.67961379803006    9.47892788560084    8.41163077197647
H         7.81209710624126    8.81820177820857    8.32530240695380
H         9.42956142715202    8.98559622347917    9.02625393785689
H         9.09559872830066    9.62933400544554    7.41643315244555
C         7.39759175687459   11.54146196494462    7.98194211339547
H         7.94960818015876   11.65580679328480    7.04943831303367
H         7.08709198845686   12.52689848706754    8.31393857902391
H         6.50727640792513   10.94405913367876    7.78389925389837
C         9.50134852329583   11.62793814992383    9.38610447443360
H        10.04572868094057   11.13517910759965   10.19082412367814
H         9.24315567870194   12.63587260565891    9.70242404896660
H        10.16315957941849   11.70642915390465    8.52403474778563
C         6.83764034899870   11.88952716079995   11.66471134821243
C         5.61901232337389   11.44325351253108   12.47052509796441
H         5.87638216700383   10.61445883773436   13.12794456062202
H         4.81987925154859   11.12598804704479   11.79596875762936
H         5.24774281629385   12.26517085073742   13.08096929386473
C         8.00160593477968   12.20550899713269   12.59517331074206
H         7.73792133464723   13.04199449905136   13.24183254593517
H         8.89813752563102   12.47116578484091   12.04085954203170
H         8.21961431007972   11.34359366737937   13.22327908477778
C         6.44935052020723   13.11267665751416   10.83834125213863
H         6.06811328851721   13.88728962235380   11.50354499455968
H         5.66224054791041   12.86265239377675   10.12934984003320
H         7.30019842346155   13.52635446763284   10.30329247008279
C         9.47360816316725    8.17495637599001   13.85167275617130
C        10.37628617715499    9.19251715285689   13.14773778215922
H        11.41636825233083    9.01887615751251   13.42255652046213
H        10.11723715628689   10.20932943313073   13.43721931864375
H        10.29159767376214    9.10341288578807   12.06540369369004
C         9.63950921597181    8.37589085637324   15.35984224629975
H         9.09387849586368    7.63010912038332   15.92935334770307
H         9.28000664403584    9.36126276940922   15.65435994144382
H        10.69255251276625    8.30252234775737   15.63118688527065
C         9.91284456156493    6.77167672548692   13.45086955502609
H         9.69837433164985    6.58798447616596   12.39855389323338
H         9.41837144977089    6.01451775666564   14.05379350563281
H        10.98773760286328    6.66679153468884   13.60322706126983
C         6.49896374073900    7.18938694004044   13.76462033174167
C         5.11735746116626    7.79262213589921   13.49350008698221
H         4.34138391082758    7.04114508956332   13.62778306918983
H         5.05963114526983    8.14378942876038   12.45190785616638
H         4.91488739123278    8.62836820427230   14.16395672839565
C         6.66220997488419    5.94390679728128   12.90016008083036
H         5.89244997264508    5.22157680345256   13.17315171400066
H         7.62928217237707    5.46971549389490   13.03064115607346
H         6.52452662216546    6.17951812793616   11.84594399940795
C         6.58611078933387    6.81748518715295   15.24476453345147
H         6.57828055407696    7.70713880449237   15.87366686754135
H         7.48517050632241    6.24336277396494   15.45616244863412
H         5.72859190671220    6.20170909290857   15.51604248585669
Cl        4.65120832015967    6.66620207506514    9.97930520548427
P         3.78868194451575    9.51258992805688    9.08174294975780
P         7.21395699815050   10.40302732376214   10.53459850014393
P         7.87325478497495    8.47453677606748   11.23428485364145
P         7.67423948736364    8.65480644153052   13.39156633503289
Pt        5.67187207559906    8.78486335389000   10.20871147454354

