68
CSD_code = PACLIR | q = 0 | S = 0 | Stoichiometry = C27H34NNiO3PS | MND = 4
Ni        3.31098682719002    4.75485778436357    1.96387375673320
S         3.20359684341170    4.91720395368046    6.18390366221351
P         2.66852816174734    5.26282651447575   -0.07920299233412
O         5.13233113419672    5.27820940873996    1.55526827540963
O         4.64175410861839    4.96196076030932    6.24567599964743
O         2.48242480377061    5.13371873541895    7.41238267074465
N         3.94975299236127    3.66954699700523    3.49966502568334
C         6.19308423482489    5.24548813971780    2.27346621183358
C         7.36197432804189    6.00981007687936    1.91829111847873
C         8.47457054008623    5.93405718256557    2.71805831482102
H         9.35151849099636    6.51108649476735    2.47271047871961
C         8.54066777223067    5.12877687048776    3.86104707022096
H         9.44556842629929    5.11033099863616    4.44892750901290
C         7.45864036514757    4.37865904662028    4.21223028497603
H         7.47508424030410    3.75776565309104    5.09554244503354
C         6.27435421322824    4.43481471807871    3.45256505554171
C         7.36651139659383    6.84461530435680    0.64309067121912
C         6.15886637156499    7.79123513970865    0.61960913712032
H         5.23480471757606    7.22922999820201    0.71189382459637
H         6.14036287689002    8.35726561498910   -0.31114047588256
H         6.22586692337213    8.49427044523677    1.44858281770322
C         8.62148909953195    7.71123573025053    0.48859467996375
H         8.73098589025377    8.39762878112141    1.32539346700590
H         8.53476658857270    8.30101576348300   -0.42256638161115
H         9.51984489729726    7.10440399551459    0.40464089126426
C         7.31944875178945    5.86281530900457   -0.53617799606597
H         8.24729039918723    5.29534178037457   -0.58022709890913
H         7.19558286887622    6.39347473579362   -1.47888747407627
H         6.50094144586790    5.16346594937296   -0.40677707396970
C         5.17847868211159    3.67813168357918    3.92593428780016
H         5.41327332730185    3.02546256958828    4.76873658104209
C         3.06779004932364    2.89388744893635    4.26807106629085
C         2.58086526526223    1.67550575908466    3.79402688575133
H         2.89619448127726    1.33856167450543    2.81732557162444
C         1.71210828382771    0.92341797824959    4.56048487351118
H         1.34846818065128   -0.02068232304764    4.18250673422260
C         1.30525076350609    1.37142837517399    5.80916888365983
H         0.62330879088812    0.78327077503591    6.40339724743726
C         1.77833213974975    2.58068210530120    6.28643750745392
H         1.48494375598096    2.97027861841458    7.24874425259346
C         2.66183095078810    3.32547970700753    5.52902727764601
C         2.62597300841158    6.11874433016401    4.97985842413990
C         1.29624707086105    6.48768498931970    5.02182846145653
H         0.66873286440056    6.08958027321774    5.80421561056546
C         0.80956839870887    7.37576614863150    4.07650570283686
H        -0.22503684787880    7.68326081699960    4.10734858105818
C         1.65343854960777    7.86619539223924    3.09315757897821
H         1.27217602404198    8.56337844868008    2.36108567131094
C         2.98976496171851    7.49155001443610    3.05726243378974
H         3.65666834848631    7.92149986591608    2.32490151362504
C         3.48746675423448    6.61225989229353    4.01335142109184
H         4.54113325302179    6.38274914957762    4.08349611578159
C         1.44414276079709    4.33703724284852    2.31767258546042
H         0.73963674434008    5.03009751453612    1.84688280374917
H         1.25554429130733    4.38027108135944    3.39303172206314
H         1.20689202151020    3.32613794321775    1.97242133419342
C         1.48841741080780    4.10312250140883   -0.88354482002874
H         1.91340880118343    3.10165491832641   -0.87781320179722
H         1.31041298240342    4.41132361503110   -1.91245178213268
H         0.54524870325410    4.08256277026856   -0.34623434034260
C         1.80434198013185    6.85915859810184   -0.36566410108618
H         0.93063245209914    6.92781501210141    0.27673450954989
H         1.49744312718657    6.93244556163807   -1.40760534459710
H         2.47702971992286    7.67966085586272   -0.12881021833559
C         3.92053311181317    5.34710007469142   -1.41500109697745
H         4.61528012871094    6.15673162921287   -1.21844395073639
H         3.42713178958671    5.51201927997384   -2.37229493074132
H         4.47322720884346    4.41115582591151   -1.44988572699026

