88
CSD_code = PACLUC | q = 0 | S = 0 | Stoichiometry = C25H57ClP4Pd | MND = 4
C         1.63717053120119   -1.01233539269369    1.75432295985198
H         0.97164912585094   -0.48688996274349    1.05598751133394
C         3.04424505859197   -0.46804044464514    1.49954852050027
H         3.79472926630267   -0.97426836141090    2.10335345390581
H         3.06053343684377    0.61067682998637    1.72862513626985
H         3.30813360013221   -0.59273437429169    0.44984627988176
C         1.55556831482654   -2.50887654851478    1.47971375379230
H         1.74171419709313   -2.69319683559851    0.42189455188732
H         0.57168533096931   -2.90462701226175    1.72182027797165
H         2.30734952246360   -3.05355736759673    2.04662388200976
C        -0.82025924995497   -0.80865554520308    3.32351887168582
H        -0.93701029269647   -1.88786959856920    3.47345416723584
C        -1.47554565028301   -0.42656902877880    1.99972849987809
H        -2.55783143518733   -0.50606457567511    2.09623965759184
H        -1.16380183550963   -1.08421632990416    1.19192795795912
H        -1.23215758205565    0.59889234904015    1.72947695517298
C        -1.49110926370533   -0.05667618119861    4.47129098658474
H        -1.32229346224974    1.01643133526784    4.34878941759187
H        -1.08880386690052   -0.36981781842920    5.43334731380517
H        -2.56533960135127   -0.23523318768167    4.47519144714466
C         1.60191930700752   -1.54999876089405    4.76977315413209
H         1.26970453402401   -1.02167117342444    5.67379063813458
C         1.05715702478454   -2.97236118642586    4.85237091136381
H         1.27160785392276   -3.54665771090831    3.95722280311723
H        -0.01605552492458   -2.98302811880233    5.02620024111826
H         1.53035817812202   -3.47683067118868    5.69500151963724
C         3.12966362873353   -1.54850611102721    4.76589994198369
H         3.51719265016612   -1.87875646766366    5.72900718239189
H         3.50759200211067   -0.53982940497527    4.56918075860795
H         3.51418925731929   -2.22093877178945    4.00237216062335
C         4.33572112372446    3.91925486507665    2.36793818875896
C         5.25558287726160    2.72430920775969    2.62110545407865
H         6.01987473189808    2.67180326969487    1.84703196081671
H         4.68530684235398    1.79045619886563    2.60370364070773
H         5.75195477753655    2.80695853809570    3.58688435744321
C         3.83160523398093    3.84828515831108    0.92559166243478
H         3.31813940915030    4.75793143681401    0.62965845170454
H         3.13733461124568    3.01320529194479    0.80708981338145
H         4.66941631660841    3.69790064292057    0.24563881919370
C         5.09796789983796    5.21353543676093    2.63676483050228
H         6.00761408685903    5.23064286327813    2.03684679440981
H         5.38007190779995    5.28258815343608    3.68684349686178
H         4.50834874588033    6.08819637082205    2.37238687012373
C         1.75956372189996    5.24393165650091    3.74830244355768
C         0.46060324244979    4.69936583787803    4.34965810098297
H         0.59763057901930    4.45089125664665    5.40140610896122
H         0.12637504725952    3.79977407852920    3.80738097744541
H        -0.32683557061890    5.44791616486552    4.27403746134727
C         1.45400036246022    5.78943253577699    2.35418415952064
H         1.10975409617045    4.98576986529009    1.70351304560732
H         2.32066892543059    6.27170576962716    1.90873102531774
H         0.65994614759100    6.53230419744764    2.42444322029365
C         2.35245644536029    6.32377222493149    4.64538691125026
H         1.65100074193322    7.15437788046903    4.72007546635324
H         3.29047821240774    6.70559095372124    4.24972520557308
H         2.52608048491655    5.93473022953856    5.64778254501718
C         4.18678573270982    3.75054934425927    7.77627879435314
C         5.10553134355348    4.51407782498720    6.81823873333988
H         5.99230772041197    4.86057890081442    7.34830490378203
H         4.59915404056176    5.38340148264642    6.40152470419132
H         5.42770310204643    3.87073766335388    6.00059042574705
C         3.84271159344205    4.68472897246407    8.93841526301695
H         3.22885129372435    4.19023422249068    9.68517780781452
H         3.30177980798475    5.55860870768169    8.57725310716181
H         4.75610446932107    5.02650413257200    9.42469487236474
C         4.92613782340726    2.51825737823565    8.28297397167612
H         5.04014366679342    1.78460594080071    7.48606665283323
H         4.40626756591106    2.06154600563556    9.12097613544801
H         5.92015011727742    2.80536371671199    8.62713037501091
C         1.56981384979944    2.04211436196205    7.65882066523517
C         1.16056277883492    2.47490731881045    9.06617268030376
H         0.37175823598231    1.82047430090369    9.43731233631050
H         0.78286756632856    3.49630934311134    9.06477764282082
H         1.99695057066995    2.41229687109463    9.75827500991910
C         2.23525071578406    0.67039657655986    7.70546685814803
H         1.49357241308665   -0.08398006593484    7.97251454610390
H         3.02833914287341    0.62755525875071    8.44465264946595
H         2.65496654674941    0.41882431772348    6.73257451547466
C         0.30674203294465    1.95745836406565    6.79297623579962
H         0.56726134194504    1.76501588304512    5.73660823011584
H        -0.26044786107898    2.88594070767146    6.84875332935950
H        -0.33775729052490    1.15168890680818    7.14183657104597
P         1.00287353715217   -0.40853317715446    3.40499837168538
P         2.87038791221874    3.71472201055771    3.54952130995494
P         3.41002511999305    2.36285355122548    5.11540989863870
P         2.56733845397134    3.43224473272313    6.80623302233156
Cl        0.59935740907578    2.25977306121089    1.48705620074277
Pd        1.75969319102993    1.78471972724691    3.46138225498818

