85
CSD_code = PACQAM | q = 0 | S = 0 | Stoichiometry = C32H38N2NiO6P2S4 | MND = 6
Ni        5.47646145266815    6.39246805968781   -0.00009288530641
S         4.58796434315777    4.36494055758900    0.71796677188224
S         3.65179098595248    7.49485111729353    0.87805771796351
P         3.53347072863100    5.70757716363311    1.75684392430989
O         5.10282445934324    5.41386947129788    7.47225838113663
O         2.00367319740359    5.23366170903595    1.89238918404383
O         8.37477523642809    4.56377449795001    5.89599013493238
N         6.67437325626123    6.68962251416959    2.01602018101761
C         3.96787085072048    5.68633550551822    3.51739875733157
C         4.18845952885924    4.45528625554855    4.12598269184730
C         4.55844367373691    4.40085417789690    5.44846157730941
C         4.72609590933052    5.57931671147194    6.18550610575388
C         4.50143171422886    6.80825833763763    5.56889972309615
C         4.12414785185761    6.85575804242438    4.23877750698256
C         5.36686833062801    6.55190332895816    8.25849252881737
C         1.22591940410328    5.04386163366988    0.70802091878923
C        -0.16266478251324    4.59796321957707    1.12099042781554
C         7.08639207730854    5.61266377917197    2.67668438882539
C         7.55473948023754    5.66231057426784    3.98713443235112
C         7.63404242680523    6.91159486502874    4.60307025751079
C         7.23736354636792    8.03462791238819    3.90426524915668
C         6.74639094829654    7.87475200807405    2.61792990035738
C         7.95433954384343    4.45700174327113    4.76660363933513
C         7.79894152454711    3.12822506720495    4.08131350329768
H         4.06549065306122    3.55201992917920    3.54491476375228
H         4.73432538593630    3.46052962256320    5.94646753388043
H         4.61729817772038    7.73228217269351    6.11291310108729
H         3.94973059566073    7.80633718802276    3.75419066504266
H         4.47089303552213    7.16711000837725    8.38944626583140
H         6.16798106665975    7.15856354191800    7.82602965592317
H         5.68754581638006    6.17057564043162    9.22621481423437
H         1.71347301487923    4.28843813157727    0.07992649426787
H         1.18870384203906    5.98800807597959    0.15149902778954
H        -0.62257560869025    5.35373549970227    1.75215369379144
H        -0.10335395031681    3.66752651294303    1.67944686099633
H        -0.77607855689963    4.44731208350119    0.23720209319370
H         7.03629938121169    4.68342371086213    2.12209035859554
H         8.00975385788077    6.96859199139706    5.61484453759002
H         7.29381686221034    9.01760771059124    4.34547123065295
H         6.39766941888855    8.72167816570924    2.03836502754151
H         6.76895816752021    2.98984923126466    3.76126965996019
H         8.07946071069441    2.33279356516894    4.76694781705134
H         8.43825481046814    3.08771393727324    3.20158006028581
S         6.36489704876731    8.42008644497222   -0.71805540204147
P         7.41939450646277    7.07738145062504   -1.75683000717715
S         7.30105204389109    5.28998640796855   -0.87831331514157
N         4.27840221302240    6.09519898938939   -2.01612978346456
C         3.86649690536888    7.17224327018173   -2.67672658085785
C         3.39826020988410    7.12275144846208   -3.98721967480932
C         3.31891091926235    5.87352872289274   -4.60327087284118
C         3.71548586852986    4.75040551265059   -3.90455023149483
C         4.20636773460557    4.91013133433214   -2.61815743992160
H         4.55509197440725    4.06313892821744   -2.03869008256464
H         3.65900262259354    3.76748017845993   -4.34587558001550
H         2.94323660655024    5.81666475102784   -5.61506644975555
C         2.99889873394099    8.32816164247581   -4.76664915049221
O         2.57862419934536    8.22151880801985   -5.89610852403056
C         3.15428583546169    9.65686567346545   -4.08121918289970
H         4.18424859050763    9.79516067378285   -3.76108125029881
H         2.87386650465072   10.45236569814786   -4.76681296725321
H         2.51490918253278    9.69734190392298   -3.20152896424277
H         3.91657932804637    8.10142800384054   -2.12203740467574
O         8.94919021584752    7.55132705023665   -1.89220482359106
C         9.72683733323049    7.74135352003062   -0.70780573524896
C        11.11537552217597    8.18743539502157   -1.12075073647300
H        11.57531614931227    7.43178480909780   -1.75204029239485
H        11.05598011916173    9.11794970081244   -1.67907054285043
H        11.72881803976578    8.33800437941428   -0.23696698969078
H         9.23913238094931    8.49675682304322   -0.07980189079656
H         9.76417451910527    6.79726454639885   -0.15119373039989
C         6.98512740825852    7.09866653347131   -3.51740892197873
C         6.76464358396564    8.32974191061048   -4.12597883912392
C         6.39462794355666    8.38421973132111   -5.44844813481829
C         6.22683801644349    7.20577588836962   -6.18549589673555
O         5.85000529492274    7.37127833685551   -7.47221351788700
C         5.58579016492398    6.23328475921903   -8.25844704780800
H         6.48170620864477    5.61801422298841   -8.38950989668233
H         4.78467635814022    5.62666762793319   -7.82592292361209
H         5.26504009612445    6.61466211373376   -9.22612658596135
C         6.45141270475330    5.97680735582208   -5.56891108684863
C         6.82872853208133    5.92926505978660   -4.23879802106127
H         7.00308473072028    4.97866534502878   -3.75422260594243
H         6.33541915927515    5.05279508629021   -6.11292365835295
H         6.21883917985790    9.32456469734169   -5.94644834595780
H         6.88776294175418    9.23300029253206   -3.54492559168512

