141
CSD_code = PACQEQ | q = 0 | S = 0 | Stoichiometry = C56H70N2NiO6P2S4 | MND = 6
Ni        0.00007805198234   -0.00005849082002   -0.00009689379418
S         2.02248322671245    0.32034452017172   -1.08960075093180
S        -0.10127539573249    2.24897056028264    0.51337374212801
P         1.79542192183333    2.01923131841178   -0.05688712075014
O         2.29968048591242    3.32502975929380   -0.86294837418112
O         5.40558673675913    1.86877310759003    4.65588432899308
O        -5.18714461308957    1.93402482539881   -3.85993709213633
N        -1.09662677442160    0.45583238948192   -2.04288791090079
C         1.50580014449879    3.97553405517982   -1.80501870947819
C         1.46810144874107    5.37066262008544   -1.86295921941365
C         0.63239923796197    5.93319019492330   -2.82432482459758
C        -0.15085407162482    5.18927593997595   -3.69741254236488
C        -0.07321433099016    3.80537538794537   -3.61116792119794
C         0.74983777266107    3.21311450554585   -2.67849455898195
C         2.28475369479753    6.23419908267152   -0.90991354679262
C         1.79230316673969    5.99517958918808    0.52416258822393
C         3.77115793690870    5.86993220984340   -1.02995334203524
C         2.15122043764030    7.73221322461860   -1.20585450665960
C        -1.07371145823089    5.82314534884634   -4.72764122915897
C        -1.04433825874802    7.35340828913948   -4.69466430027822
C        -0.64290015634945    5.36652681053263   -6.12847799956866
C        -2.51381676208122    5.36673587678624   -4.45302047427198
C         2.97026696223506    2.05729675594500    1.32900363626921
C         4.15037136512930    1.33530705819785    1.25001381620580
C         5.00328103231690    1.26136308030673    2.33427920841061
C         4.67272323666393    1.91080970163158    3.52240552505963
C         3.49145833249281    2.65862424155914    3.58664646370567
C         2.64373231528008    2.72187846374048    2.50542182444276
C         6.54566154995940    1.03397425084500    4.69834173598591
C        -2.20198792877010    1.18917688093763   -2.00658737780894
C        -3.03960390540608    1.34887480039683   -3.10723913878928
C        -2.68276645703491    0.71640321049795   -4.29844140112380
C        -1.51368390021486   -0.01848559165952   -4.34311049794653
C        -0.75252759643234   -0.12627100758224   -3.18986933397867
C        -4.31191097056099    2.11319086722181   -3.04029863977071
C        -4.45077047151195    3.08647391063424   -1.90505308639081
H         0.58635053327670    7.00434676337119   -2.88472984971910
H        -0.65132148561588    3.17124495355928   -4.26581111428928
H         0.81842846293921    2.13752942620455   -2.61735924015627
H         0.73053887113966    6.22152427222950    0.60012087125703
H         1.94480195965655    4.96407333715576    0.82595390585350
H         2.33627166293968    6.63360809717481    1.21708509827709
H         3.94878776669001    4.83370592412444   -0.76107527807529
H         4.36196802692589    6.49939970674649   -0.36768750097242
H         4.11307513825872    6.02495469105826   -2.05154755890511
H         1.12757021914792    8.07367586492691   -1.07141432094923
H         2.77965032364484    8.28721556540296   -0.51235970065368
H         2.48075516114317    7.96582627843396   -2.21564722146824
H        -1.36654384738865    7.73128528757522   -3.72725584569131
H        -0.04822663353579    7.73071640531013   -4.91326106596973
H        -1.72349846231763    7.74378650589608   -5.44985457831491
H        -0.71211527454932    4.28735996769384   -6.23145045353584
H        -1.27940999981531    5.82280041729792   -6.88357537408161
H         0.38660950897762    5.66175680543466   -6.31942963399625
H        -3.19290925902914    5.81194972088562   -5.17677512052939
H        -2.82121234617551    5.67744418232359   -3.45669327359481
H        -2.60874234123213    4.28618878860614   -4.52011082949840
H         4.39292728334649    0.81852114563593    0.33192152880943
H         5.90973004051763    0.68324986320118    2.25287522045432
H         3.25487602091640    3.16292039528476    4.51021204295723
H         1.71350287100694    3.26907573774074    2.56869445909302
H         6.28379327174230   -0.00759219347776    4.49178670267808
H         6.92932784654593    1.11825102390332    5.71347848778686
H         7.31265013321084    1.37035743359388    3.99439499308858
H        -2.42407262361502    1.64772220194556   -1.05077718726380
H        -3.32202123129353    0.82065538184290   -5.16363366635885
H        -1.19819027958787   -0.50842346507737   -5.25055850345148
H         0.16883249882907   -0.69713492707806   -3.17237546026023
H        -3.55607910183667    3.69624444664397   -1.80846248135543
H        -4.58663168320245    2.53457831953313   -0.97604246379330
H        -5.32074046153648    3.71741110351617   -2.06866936629290
S        -2.02311807168946   -0.31985895976051    1.08829073750710
P        -1.79569249460480   -2.01940414768793    0.05703039688701
S         0.10112448764647   -2.24938019014208   -0.51227954799778
N         1.09620922710835   -0.45594552988966    2.04313364651039
C         2.20145938562261   -1.18943908316577    2.00696234435585
C         3.03926000877936   -1.34871249448686    3.10752046636033
C         2.68247427986791   -0.71603782566253    4.29863546130639
C         1.51340980081391    0.01882159254475    4.34324718668985
C         0.75233021193592    0.12659911734107    3.18997916966033
H        -0.16950487985004    0.69677598064472    3.17265715078870
H         1.19774493712174    0.50858240745208    5.25075995449229
H         3.32183601730005   -0.82011727855774    5.16381398369427
C         4.31161464095570   -2.11302372410572    3.04065965776520
O         5.18694232045307   -1.93365022306112    3.86024566054916
C         4.45080409495685   -3.08604413255275    1.90524853896276
H         3.55617488002963   -3.69590435706130    1.80862445539504
H         4.58657961957841   -2.53395680167239    0.97632220835437
H         5.32087820089325   -3.71689157074103    2.06885318243003
H         2.42381250639438   -1.64767286183807    1.05107333732825
O        -2.29991422769339   -3.32515563053895    0.86316324998422
C        -1.50595106777094   -3.97567458064888    1.80514796911531
C        -1.46808768691960   -5.37080376317291    1.86297219976226
C        -0.63227828039616   -5.93331675432244    2.82424564077448
C         0.15090897840827   -5.18939614481954    3.69740502427566
C         0.07310211047941   -3.80551297350368    3.61131156812969
C        -0.75002823572856   -3.21327245029896    2.67871525237773
H        -0.81880781107666   -2.13769837247702    2.61776467970636
H         0.65113306924780   -3.17137131605235    4.26599431083038
C         1.07388886609735   -5.82323903419206    4.72752364483494
C         1.04471411882997   -7.35349968421162    4.69437386456841
H         1.36696018739935   -7.73123847145862    3.72692343245748
H         0.04865927193415   -7.73096382759601    4.91295007938621
H         1.72394517657143   -7.74384263005086    5.44951773924584
C         0.64308158280981   -5.36677970408756    6.12840722394128
H         0.71216643195513   -4.28761285838004    6.23146253723205
H         1.27969715965124   -5.82302993484143    6.88342048669498
H        -0.38637841555202   -5.66216259194269    6.31938805042021
C         2.51391180705281   -5.36658761052156    4.45286320337105
H         3.19311187160756   -5.81179011051635    5.17652694166997
H         2.82130322948419   -5.67712794646875    3.45648556281447
H         2.60869740927566   -4.28603902162096    4.52007666174895
H        -0.58606235870290   -7.00447439404172    2.88453509513817
C        -2.28460811228761   -6.23437766420588    0.90983560660187
C        -1.79218058477800   -5.99520113257871   -0.52422016281827
H        -0.73039493731653   -6.22143722490563   -0.60020479782728
H        -1.94476432364668   -4.96408442782979   -0.82591431961766
H        -2.33609151109467   -6.63360979326975   -1.21720060845372
C        -3.77107366792162   -5.87035687625767    1.02989924007906
H        -3.94885290053237   -4.83415044700207    0.76107578623838
H        -4.36179244801610   -6.49986624068663    0.36758228985545
H        -4.11297029286494   -6.02547844831224    2.05148617086586
C        -2.15090508696629   -7.73239667865734    1.20564238955553
H        -1.12721565510548   -8.07369187469992    1.07115898000610
H        -2.77926199188098   -8.28744441569693    0.51211032362698
H        -2.48038222693739   -7.96612930102024    2.21542219010465
C        -2.97048458842596   -2.05738734848923   -1.32889157860116
C        -4.15057117052568   -1.33534404149905   -1.24998176894702
C        -5.00336388253474   -1.26132918093905   -2.33433754725709
C        -4.67267522511560   -1.91071427350359   -3.52246151831893
O        -5.40538290040756   -1.86854888579036   -4.65603469823726
C        -6.54541408453397   -1.03369576845263   -4.69859301143069
H        -6.28353443225269    0.00783296723610   -4.49187615080137
H        -6.92891593378975   -1.11784636901673   -5.71380285417530
H        -7.31253355222996   -1.37012185688579   -3.99480914481445
C        -3.49144848583886   -2.65859241999755   -3.58659893125181
C        -2.64385614152370   -2.72194686671762   -2.50528471620127
H        -1.71358033750980   -3.26906952575495   -2.56853028587562
H        -3.25472876396908   -3.16279214128724   -4.51017871318806
H        -5.90981350961019   -0.68319959451509   -2.25302118954520
H        -4.39323418886896   -0.81865745751688   -0.33186168632110

