73
CSD_code = PACREQ | q = 0 | S = 0 | Stoichiometry = C25H37ClN6Si3Ti | MND = 7
C         2.08400180871894    0.52559318809766    8.84349846769383
C         1.81582426274981   -0.53604044359354    7.95138620757308
C         1.56776743344333   -1.79421420161376    8.44732072910894
C         1.59393089893458   -1.98346018517372    9.83941974154440
C         1.86223559583792   -0.90743058652637   10.65616656067496
C         0.68131972904116    3.60424834262714   10.98029666167136
C        -0.40906225223293    4.39583046479419   11.39411562119831
C        -1.27292753521931    3.91353356559814   12.34996287624164
C        -1.03599051659267    2.63432692489341   12.87792536780897
C         0.04120780182510    1.90957239838623   12.42078584837134
C         5.25673273349010    2.25038565784504    9.85261169348349
C         6.64794991949424    2.25006591303500    9.60789413682536
C         7.38853497334198    1.13035348250010    9.90164773969400
C         6.72841584552096    0.01244795954095   10.43982286613044
C         5.37206634764722    0.07879328636487   10.65966187134483
C         2.87809244331531    4.42919242861407    7.60779127344187
C        -0.30306479284317    4.33112146456786    7.92085485650423
C         1.23632336350142    6.77476568273166    8.99429453769413
C         4.38300642893571    1.85966992749513    6.38906609574969
C         1.43340467191287    2.34707690039169    5.69334934943255
C         4.41937309660577    6.10268423023380    9.96643370361574
C         5.95427322279941    4.94509541672947    7.54682855251507
C         1.27637693905641   -2.95121456475379    7.54329410272125
C        -2.43525974195912    4.72043788984388   12.83770330996046
C         8.86664734961884    1.08431599419380    9.67008605795735
N         1.63794745309136    3.94100345098107   10.10850123319517
N         0.86969417823148    2.36335078202287   11.48507623413664
N         2.34850704178166    1.79275033101017    8.55209418777788
N         2.09446148118334    0.31272279435554   10.18568102401597
N         4.39457055254069    3.23612172457775    9.64568659863662
N         4.64477286739358    1.15450373099904   10.37102598204017
Si        1.37122406861060    4.88255493813676    8.68716504094148
Si        2.74360974708266    2.58924494419501    7.07726436369695
Si        4.44397955342623    4.67087489078294    8.69710941985497
Cl        3.52718398198770    2.98964678339065   12.45939158169270
Ti        2.79374235732844    2.36711448179533   10.40486593965554
H         1.81494668964067   -0.33280855100948    6.89181267891281
H         1.40688216641107   -2.95916128857754   10.25921705769785
H         1.89530365921434   -1.01807967568412   11.73524375241484
H        -0.52535462028991    5.38085431393666   10.96999707342192
H        -1.68967959945208    2.22816938111184   13.63353241594593
H         0.25302324755864    0.91842372181447   12.80620065848960
H         7.10525566544284    3.14146847882681    9.21140560991785
H         7.28123147191340   -0.88073514929678   10.68397908881577
H         4.83063534878507   -0.76346055672621   11.07846924547713
H         2.91120532017053    5.07388739644501    6.73317421276479
H        -1.14272370985290    4.79513403614083    8.42958904635583
H        -0.41625729758610    3.25472314033122    8.01803827681527
H        -0.37915815613651    4.58496560252206    6.86972762473500
H         0.21371517642331    7.11697371923617    8.87227512069080
H         1.84564686461833    7.32751531855937    8.28854405673788
H         1.55899444715997    7.04824635024229    9.99269846907219
H         5.12851335668701    1.78913482845647    7.17626061410615
H         4.79145708747875    2.46399035040932    5.58630618123291
H         4.22957756011032    0.85823554252885    5.99612487596730
H         0.47496190273075    2.03043837630307    6.08862325912479
H         1.75818669378747    1.59888227201450    4.97790989888641
H         1.27419270155383    3.26772453649241    5.14448906733857
H         3.71999240862990    5.85589909291047   10.76278501606955
H         4.12908843591143    7.05083569510110    9.52942177440628
H         5.39723204632375    6.23633264696423   10.42179556958807
H         6.21508079857614    4.05914994624828    6.98059645533870
H         6.82816976414776    5.25507741969452    8.10973665614711
H         5.73573451756458    5.73495731904041    6.83667242627940
H         1.99681253157553   -3.75054924673574    7.71078411248291
H         1.31945072027710   -2.65127473131694    6.49978528637231
H         0.28476935217401   -3.35009168655819    7.75334579467331
H        -3.36160832833098    4.16108754367075   12.71560531715552
H        -2.51408688087757    5.65845876263329   12.29487555342448
H        -2.31692843697090    4.93862419711242   13.89820970618286
H         9.12498624635973    0.23105100698400    9.04471332256963
H         9.38791240755119    0.96985059072587   10.61961198192050
H         9.21406513111137    1.99432931037584    9.18856290786598

