38
CSD_code = PACTHF | q = 0 | S = 0 | Stoichiometry = C16H17FeNO3 | MND = 7
C         0.83255631745857    0.67674973350697   -1.85831799724542
C         0.31896357153362   -2.73806017401255   -1.53681168449103
C         3.66883613158457   -4.26126233162760   -0.88088208066512
C         4.33408055249775   -3.55039937619821    0.11987015612143
C         5.61106524035768   -3.91237032343034    0.50473959076987
C         6.25399359650065   -4.98567426494655   -0.08618521728897
C         5.59755799458564   -5.70659974154231   -1.07071555981038
C         4.32597955307187   -5.34828841624102   -1.46635549507959
C         3.09866798071641    2.08543486518221   -2.42362838175557
C         2.45955816536677    0.39461215155385   -4.03075342950708
C         3.38445675984086    1.32242631533443    0.81917285657961
C         3.06742425279877    0.18657174413335   -0.12107355267762
C         4.12477217548383   -0.34850355134626   -0.90247189381679
C         3.88605271115231   -1.27169304621171   -1.93202206209465
C         2.55365532962537   -1.75763788481228   -2.19390469798376
C         1.80133816906519   -2.64176455978827   -1.19720561420881
Fe        2.55501387292744    0.41407250340874   -2.27417785139516
H        -0.16445619364491   -3.46857484364055   -0.89276669589260
H        -0.16207043873036   -1.77496104709856   -1.39911247409227
H         0.18517724668744   -3.04133151750117   -2.57331355357999
H         2.08643341886764   -4.48346851052626   -2.09351833628410
H         3.85474083490113   -2.71927643301277    0.61164028144933
H         6.10821534505031   -3.34627516340118    1.27951571743955
H         7.25265804150528   -5.26021583267878    0.21756642107066
H         6.08391425060795   -6.54992123654627   -1.53937250848136
H         3.82086081106440   -5.91358931879411   -2.23828744241258
H         4.08304630481352    2.02563705007017    0.37092794193523
H         3.82837540207495    0.93447735553678    1.73888326265498
H         2.47933154604742    1.86099272968822    1.08923274049829
H         2.32925609293906   -0.48457477953511    0.30209349676034
H         5.12342796737693    0.06638776183113   -0.79579492456879
H         4.71487578623601   -1.56571133605453   -2.57001369608738
H         2.49378319116915   -2.25869797888290   -3.16643902789284
H         1.90744870951457   -2.30078228640447   -0.16687262015319
N         2.37359225502218   -3.97627443575613   -1.26591739377950
O        -0.25760122025800    0.94870652849888   -1.63657816714792
O         3.37641118178038    3.18859766200312   -2.56947707569090
O         2.34000709240825    0.42234198924173   -5.17117303119954

