23
CSD_code = PACXAV | q = 1 | S = 0 | Stoichiometry = C5H13N2O2Pt(1+) | MND = 4
Pt        0.00000059646387    2.10027137188214    0.78895373972277
O        -1.46310818734035    0.74436935775828    0.81199680060897
C         0.00000009638401   -1.13909425974995    0.84360224021582
H        -0.00000021231438   -2.21666303546642    0.86092543234978
C        -2.46649047929018   -1.38331389367796    0.84393870865372
H        -3.36351189149417   -0.77145503411146    0.87276839175177
H        -2.44678078540764   -2.04111488298878    1.70938918897985
H        -2.48286336999227   -2.00460645522347   -0.04878643881504
N        -1.57345365000209    3.49811796507963    0.76509936273304
H        -1.35673291739149    4.49261559941691    0.73279626167171
H        -2.14039914255029    3.32060845286543    1.59560067502259
H        -2.15597246444387    3.27147340708910   -0.04245633373379
C        -1.24319801363225   -0.50960238672118    0.83285192334111
O         1.46310913135687    0.74436914385128    0.81202715898252
C         2.46649059368013   -1.38331628861979    0.84389593805606
H         3.36351316004442   -0.77145907756722    0.87271876982776
H         2.44679790406124   -2.04113335639954    1.70933446225313
H         2.48284470194693   -2.00459206923539   -0.04884100169800
C         1.24319859592369   -0.50960320691535    0.83284829703594
N         1.57345362180391    3.49812049917776    0.76516315060459
H         1.35673085432760    4.49261780184549    0.73287039108469
H         2.14037134559689    3.32059653549422    1.59568022960754
H         2.15600051226945    3.27149381221628   -0.04237734825654

