60
CSD_code = PACYOJ | q = 0 | S = 0 | Stoichiometry = C28H25N2NiPS3 | MND = 4
Ni        7.38226399417593    3.53043638230132   13.40712217912581
S         8.20148022355715    1.41686445163725   13.40832230450073
S         8.10181486610038    3.35303870567199   11.32113569564055
S         6.93663984743108    3.98669922137716   17.82046760520690
P         6.70023398640749    5.59368082452893   13.25530506805614
N         9.55189236043244    1.11634776632617   11.12091033548659
N         6.76891014375721    3.45324357007705   15.12253637667284
C         8.72449776986895    1.85506242358459   11.85511482976414
C        10.04833849136180   -0.15883918313580   11.57519917293133
H         9.60346311827389   -0.40414105162265   12.53704799514109
H        11.13490497699698   -0.11865436020768   11.68261163176050
H         9.79055051968523   -0.93289306649528   10.84986538384831
C         9.95575846964505    1.50551542845095    9.78213769040200
H        11.03982417973036    1.37733228175049    9.70099165040030
H         9.71004158465950    2.56239427835084    9.64603522601383
C         6.90484402167073    3.70595176687967   16.27034664453892
C         9.24831140679218    0.66941214654726    8.74566973419219
C         9.93914015995557   -0.26831673592188    7.99106631483377
H        11.00623885460076   -0.38232563908131    8.12182374644622
C         9.27031627610956   -1.05345569439216    7.06751315268226
H         9.81732675038310   -1.77820062807210    6.48291695345342
C         7.90400609021591   -0.91265824956429    6.89825840039721
H         7.38192284518891   -1.52771164524792    6.18065105351484
C         7.20837802598789    0.01934359198099    7.65070624876743
H         6.14260716244830    0.13328792507540    7.52036757722391
C         7.87674961795259    0.80743271599800    8.56946088140531
H         7.33648020417987    1.53747590735968    9.15383683313535
C         7.43227716961171    6.59236600715778   11.91901778695489
C         8.82476609761352    6.62665679076721   11.87563381687204
H         9.38743703573986    6.06603285572058   12.61427840579324
C         9.47510342221090    7.34888868008738   10.89419022234000
H        10.55465179182251    7.37495079301838   10.86570642635791
C         8.73681681185291    8.03013556022798    9.93906634596402
H         9.24165062558297    8.59066393678639    9.16623279734753
C         7.35330862302612    7.98037742149322    9.96625481018052
H         6.78015295271827    8.50028036341454    9.21254048491880
C         6.69674272011663    7.26187728079221   10.95106257698031
H         5.61789010152324    7.21416143277436   10.95861743453080
C         4.94300138232594    5.39979769542556   12.83751227810047
C         4.03707086682549    6.45577148074973   12.82447959256661
H         4.36652581991101    7.45206169019814   13.08620567561537
C         2.71444340465367    6.21655213855882   12.49742427805336
H         2.00795138137573    7.03364438903932   12.48655635232874
C         2.29146343090839    4.93205449031709   12.19180435433865
H         1.25631877081765    4.75360645234505   11.94109928897452
C         3.18731994377071    3.87490496731591   12.22150156357690
H         2.85080089323682    2.87318897549271   12.00005176179465
C         4.51045017170232    4.10951980785850   12.54526497169725
H         5.23414162088183    3.28403051149123   12.59943744881440
C         6.65919861190988    6.73063989879786   14.66965854036452
C         7.58745682747213    7.75468842548949   14.82113604532254
H         8.33205586750905    7.92956041068944   14.05723332899756
C         7.55414910298374    8.55321061625214   15.95055996339201
H         8.27701121432495    9.34782519466896   16.06513004406921
C         6.60586882382207    8.33024473861220   16.93475940705225
H         6.59142044647539    8.94827910241010   17.82002379685589
C         5.68078906840153    7.30903229027351   16.78720333445365
H         4.94686379836500    7.12620342508597   17.55725009604755
C         5.70667020064269    6.50852657980318   15.66183003416809
H         4.99699505238457    5.70114246298182   15.54825604964205

