79
CSD_code = PACZOL | q = 1 | S = 0 | Stoichiometry = C35H38NNiP2S2(1+) | MND = 4
C         1.73055864565074    1.51077801393974   13.06559750810434
C         1.57208152941257    0.43228084851974   12.19856192406558
H         2.39564279042409    0.17095099042851   11.51603864426516
C         0.39821573077448   -0.29582790565459   12.19896370245979
H         0.27432832983395   -1.13365530248377   11.52966603673865
C        -0.62328494672577    0.05767901466760   13.06723052419367
H        -1.54157550758489   -0.50904327688930   13.07396984614947
C        -0.47173019850583    1.13385375842510   13.92824234186678
H        -1.27220672528537    1.40201544967280   14.60074135295837
C         0.70322235240472    1.86470772471443   13.93249979461462
H         0.83092826370219    2.69817590124549   14.60870967545788
C         3.86629872031994    2.57651487581772   14.69520428921592
C         3.53931185834627    1.60642149686373   15.63898156738476
H         2.91405345523831    0.77102841384976   15.35686361398256
C         4.01081921453182    1.71787297843335   16.93414533036456
H         3.74777546292273    0.96907612712969   17.66569905346601
C         4.82099226323206    2.78356465517573   17.29116974197840
H         5.18905648163496    2.86653907534456   18.30217485173226
C         5.16532402706437    3.73936520047039   16.34840960551474
H         5.80324121204829    4.56563076093566   16.62365749787243
C         4.69672815365530    3.63664224220957   15.05178345905304
H         4.97854837864383    4.37616597284160   14.31565750154761
C         2.85917661823134    4.13012745201459   12.52575835721287
H         2.49061151304709    4.62070890947080   13.43147099330267
H         3.78227561613932    4.63320527673968   12.22121609786692
C         1.80696955489323    4.23383424842915   11.42446647460709
H         0.84794607319536    3.88270014161811   11.81158098544351
H         1.68858719985979    5.28802756492343   11.16168420782190
C         2.13212556227549    3.43295317998211   10.16637923866574
H         1.34799053014216    3.62789995810445    9.43251471357675
H         2.09919891600938    2.36354322636735   10.40566929134791
C         3.49443045811993    3.76337788803187    9.55130322584241
H         3.76903404544077    4.79980818799690    9.75503682090086
H         3.45253695591035    3.63296482143911    8.46737230291537
C         6.06529624410883    3.69240099745828   11.00883421879883
C         6.65549931018963    3.14383187078139   12.14668326721286
H         6.37014736849214    2.12991883182671   12.46868532796861
C         7.60074487323549    3.85996332107018   12.85694323240875
H         8.05408381344008    3.43405161752832   13.73903264853780
C         7.96064300276732    5.12914563595074   12.43013239237622
H         8.69556193160736    5.69403008008301   12.98251335134206
C         7.38661288358392    5.67339705740924   11.29127088822535
H         7.67959906604356    6.65722397447789   10.95773375541816
C         6.44174120892618    4.95910193303539   10.57513743254315
H         6.00875444667866    5.37859158847536    9.67805765321346
C         5.67005400594775    2.14513075652218    8.62120236183704
C         7.02117961963358    2.36966948235275    8.38577793368197
H         7.62170428072710    2.89061384400776    9.11740494902686
C         7.59250027301530    1.92586176157771    7.20584236133568
H         8.63944455930855    2.10958488564005    7.01798222245344
C         6.82955746730616    1.24433204033061    6.27233053442255
H         7.28202286095186    0.89810893983198    5.35587670261470
C         5.48755317954745    0.99580523297319    6.51776099428982
H         4.89645283127172    0.45228959630294    5.79630177828503
C         4.90932740055851    1.43879045475603    7.69104581851715
H         3.86657459717060    1.23414513325200    7.89988488548750
N         5.33870480139893   -2.71991732502428   12.07276694492155
C         5.04051688677021   -3.41016283943518   13.30874736071359
H         5.34960941188048   -2.78212700366404   14.15337604842177
H         5.63717383129487   -4.32611727646999   13.33873579199792
C         3.58219108333273   -3.74335076036612   13.46569859021248
H         3.36323402222235   -4.30022505739934   14.36542104223966
C         2.61982597460541   -3.40341613940904   12.63090960221940
H         2.80551135972072   -2.84748616944110   11.72609573467931
H         1.59542519368932   -3.67174484881152   12.81731797292793
C         5.72025893414960   -3.52819554255158   10.93637074651796
H         5.50286745079466   -2.97140293878570   10.01680611705183
H         5.10109023392541   -4.43146162665965   10.93533338420302
C         7.17476713621925   -3.90967991232517   10.94015955772238
H         7.43740728536546   -4.61411557678706   10.16403544495711
C         8.08641636554477   -3.44985806602460   11.77455564953208
H         7.85598393817558   -2.74102037789220   12.55337416928902
H         9.11308158504631   -3.76266042482990   11.71145337272065
C         5.21059966679090   -1.40745360187914   11.98481830375483
P         3.31095681134311    2.39861909723076   12.97935580544593
P         4.84478810662482    2.64715804879070   10.15807072263089
S         5.47686732162925   -0.51909547611768   10.55729469820711
S         4.74554598425985   -0.43032786322122   13.30112443821037
Ni        4.52090885566654    1.13546477461118   11.69692321900980

