81
CSD_code = PADDUU | q = 0 | S = 0 | Stoichiometry = C32H42N6Zr | MND = 6
Zr        4.81103456997083   -7.41385715473384   15.24667812752948
N         4.84897921128096   -6.47527790395213   17.37846279319314
N         6.01695769198747   -8.30787339076894   16.80004051125307
N         2.82732113843070   -8.11427407429318   16.25690227865506
N         2.91871531657608   -6.47991108087907   14.71603807811781
N         4.87360185293234   -8.88726259801862   13.84676989652785
N         6.20175341314996   -6.06932460404092   14.57176072815109
C         3.48504628931865   -4.51458233108584   17.71363146986650
H         3.51267133259744   -4.53855366194688   16.62416049979193
H         3.91494486732644   -3.57631861114583   18.06318101649433
H         2.45016727349111   -4.55459655120387   18.05229602169827
C         4.25359522872045   -5.68044683250336   18.26532773089960
C         4.33063989098566   -5.90329336675818   19.63200611118795
H         3.84353382752363   -5.23311223363401   20.32220149543305
C         5.02919676957581   -7.02022825199674   20.09070405064060
H         5.07669674878055   -7.22780328825840   21.15084093306890
C         5.63987165135360   -7.86038951548476   19.19534975837874
H         6.14856924538258   -8.75707196965980   19.51400857282687
C         5.55366948297863   -7.56632754266358   17.81044771247817
C         6.91520160122970   -9.35825408310172   16.93422025634521
C         8.14211230712892   -9.27363240051292   17.61785096660089
C         8.60640867245612   -8.00492295734739   18.27425661050273
H         8.42496046900807   -8.02424362934811   19.34965802443857
H         8.08599836975125   -7.14310133637078   17.86098608192243
H         9.67671076127087   -7.87742897603076   18.11924640690792
C         8.97378155797375  -10.38443926432613   17.63684630993170
H         9.91515682830638  -10.31246581781480   18.16563335402599
C         8.65341795321251  -11.57204881761294   16.99591586922000
C         9.57072299174575  -12.75620892586454   17.07009451781272
H         9.36254988174849  -13.33805354493145   17.96920737419221
H        10.61071140053370  -12.43937450499318   17.11025474481620
H         9.43391678771728  -13.40654541501714   16.20923427543960
C         7.45973004870298  -11.63011116304733   16.28560592111977
H         7.19658182988940  -12.53495931341496   15.75559320046730
C         6.61130077300041  -10.54416111128118   16.25259086832426
H         5.68524731052605  -10.57354691015549   15.68743349915988
C         3.03782256487496   -9.89671163514924   17.86608373933459
H         2.52669822273613  -10.84971702377457   17.98526160040991
H         3.24484960964171   -9.49407762387994   18.85863889923493
H         3.98739474185074  -10.04722305657102   17.35119780654971
C         2.18693544226516   -8.93004847213754   17.09436562233365
C         0.81096128498801   -8.89586107792180   17.25191325841299
H         0.32211237305808   -9.56354882476080   17.94296705271450
C         0.07257742930442   -8.00068859884326   16.47621627915223
H        -1.00540638157582   -7.98303068257571   16.55496334650167
C         0.71184540839363   -7.15300286494494   15.60897970183139
H         0.15859735800605   -6.48085143475531   14.97218156081548
C         2.12698239549071   -7.19702006196061   15.52065292507545
C         2.49401173799249   -5.37883702388084   13.98174637408426
C         1.64790204744825   -4.39144069340761   14.49499310608185
H         1.26300121765337   -4.49037901618193   15.50040846614210
C         1.31753430242963   -3.27666764446680   13.74637933605653
H         0.66194168015816   -2.52899708223876   14.17072533402674
C         1.81807484232068   -3.10630138384774   12.46499819733818
C         1.47975101632856   -1.89433410209836   11.64914923597313
H         1.27221605409505   -2.17029489815158   10.61688576846650
H         2.31765627544236   -1.19609113870604   11.64564133341653
H         0.61169083712315   -1.38156631666626   12.05655936648716
C         2.66693249179621   -4.08476545951558   11.95615030484732
H         3.06471107964741   -3.96169934023392   10.95767423809177
C         3.01338897497212   -5.20980740290037   12.68096294249811
C         3.93026218741920   -6.25326576782569   12.11698859559607
H         4.86888825826974   -6.28402875654165   12.69232492484566
H         4.14967251625163   -6.04145008737168   11.07211815532327
H         3.46608482583527   -7.23919069854240   12.19489672935905
C         5.97525307095618   -9.10520651665517   12.93273017311857
H         6.49837665829380  -10.06033898312051   13.13786221645520
H         6.69654757233849   -8.28724701161322   13.01452427242042
H         5.62363267013674   -9.15352969541171   11.88435073224044
C         3.85161120309469   -9.88794864303339   13.63329166047161
H         3.44272070556102   -9.84019100047079   12.60342549526386
H         3.02059834983073   -9.75052783629518   14.33367203447948
H         4.24439076257123  -10.91742103127119   13.75900594700280
C         7.58745347747202   -6.32988665966782   14.90250653063178
H         8.26435647357056   -5.81447243199459   14.19425494921064
H         7.80122173794269   -7.40383066077222   14.86087210661346
H         7.85148743146900   -5.95766031314145   15.91449608794784
C         5.92983236127174   -4.65822596117854   14.76298071334862
H         6.11823752839744   -4.33234644318748   15.80837403876039
H         4.89290800397854   -4.42611493728666   14.49823002250880
H         6.58530585202498   -4.04385057091639   14.11726275097677

