97
CSD_code = PADFOQ | q = 0 | S = 0 | Stoichiometry = C44H48N4Zr | MND = 6
Zr       11.45545321457582    6.69986989723216    4.38134525580022
N        11.59127238740892    5.17346966816613    2.56859475965117
N         9.79978098148963    6.46333247832249    2.97883133519935
N        12.41962585505058    7.80907156626977    6.21130956071134
N        10.28430493368099    8.08368586392658    5.55703979801141
C        13.64379625075779    3.91230162908918    2.33713754029612
H        13.87763591176805    4.44212155170082    3.26085957542045
H        14.32456996208488    4.24584321689753    1.55399355917523
H        13.79767440509641    2.84446114166808    2.47933365137013
C        12.22217212000680    4.18358606073366    1.93244633211510
C        11.61012660632299    3.43121076187571    0.94470683429370
H        12.15077666499281    2.64374537602689    0.44484917433635
C        10.27844022380040    3.70099070474950    0.62162035189658
H         9.77905576404061    3.11254195439428   -0.13505494820960
C         9.60714179990302    4.70281833751272    1.27081847562396
H         8.57107121352319    4.92341362236465    1.06533842272216
C        10.29482654681076    5.45904712755065    2.25454073446551
C         8.44274779004627    6.83022467523618    2.84451911306438
C         7.99335434169502    7.61464664909759    1.77530992562241
C         8.92952654703124    8.01132467233531    0.67252202736184
H         9.93836353247265    8.14568200234585    1.05823136902760
H         8.59961023108911    8.93353043070572    0.19937453059287
H         8.96449438128663    7.23274323848853   -0.09154731416406
C         6.66255286524840    8.00118889000510    1.73682282449447
H         6.31993623901227    8.61161453364662    0.91206666039454
C         5.76180222367129    7.62435839984360    2.72137146861556
C         4.32436239791347    8.04339602169861    2.64158925290933
H         3.77422590779380    7.37548195430970    1.97733236735637
H         4.23719173126989    9.05274686615328    2.24511732979294
H         3.85714826822836    8.00662482598316    3.62203101633834
C         6.21447575666511    6.81975386807715    3.75670878794049
H         5.52365023021188    6.49889690615284    4.52341104837296
C         7.53516825482448    6.41243496363450    3.82652103798028
C         8.00743943629905    5.48335436340864    4.90484889125523
H         7.31388616890414    5.47785667319038    5.74187309876558
H         9.00679523494833    5.77895062379202    5.25663538287918
H         8.07314922441167    4.46820863776649    4.50514271106860
C        14.74237676155233    7.34345322165488    6.76268115378463
H        14.55194660587373    6.46295911986148    6.14951643037757
H        15.15406318175807    7.03490764844208    7.72224367814518
H        15.48852163654869    7.96651947697320    6.26861330041160
C        13.47438504548725    8.12544534459676    6.97036961856608
C        13.43083066115078    9.13020725895486    7.92071581309877
H        14.30182415612432    9.35346780576793    8.51578630400450
C        12.24571826234236    9.84887686246696    8.09120604999772
H        12.19827199912933   10.64381743283142    8.82176654655590
C        11.15067443422445    9.54127455101631    7.33047263852212
H        10.21946320678073   10.07850416678968    7.42161224116704
C        11.25017002611980    8.49412656237508    6.37971102479266
C         8.98108483727239    8.61476033316112    5.65998768258634
C         8.13657735317382    8.25813264920412    6.72045491518049
C         8.62912368503794    7.38061819526355    7.83284978451841
H         9.03589903020194    7.98841652172240    8.64264825229632
H         9.42337772303469    6.71964014015891    7.48819075575409
H         7.81861972946295    6.78065152560760    8.24047995891145
C         6.83757959796676    8.74153782367298    6.73976464714764
H         6.18876450574411    8.45942878943851    7.55801467856446
C         6.35166990639588    9.57527207060584    5.74383948491448
C         4.94718205300418   10.09733569055000    5.80352636640187
H         4.89205209626493   10.95189165334141    6.47918666215579
H         4.26668232094190    9.33468576970139    6.17653498352183
H         4.61330379824571   10.41994947543731    4.82094996053748
C         7.20700384099859    9.93928577251827    4.71475921456981
H         6.85347395133436   10.60092893246651    3.93672482051454
C         8.51133234730322    9.47815720903904    4.66227526160728
C         9.44524500466515    9.93070821594813    3.58227674378189
H        10.05562749258123   10.75981900647669    3.94442470021526
H         8.89281467141519   10.27046114782734    2.71030540889146
H        10.12348197485285    9.11792885741348    3.29557245017163
C        13.37011716766625    7.43246628413338    3.37710360698331
H        14.19371061923528    7.53295138606418    4.09069310993105
H        13.66241089681226    6.78738950661589    2.54138857597991
C        12.90788791581763    8.72769808030634    2.90118545571610
C        12.37330490072014    8.87412771770461    1.60530983029014
H        12.32190184959993    7.99934496321219    0.96294760614764
C        11.97321365258649   10.10596412913765    1.12749551210099
H        11.58396456674952   10.19108126577518    0.12222566372747
C        12.08813723780822   11.23923521504108    1.91863280210186
H        11.78717175649905   12.20351188746105    1.53821446062651
C        12.61010193932657   11.12134544048191    3.19910664603453
H        12.71831740234257   12.00222821995050    3.81744010210426
C        13.01327730406750    9.89445412217428    3.68527586408595
H        13.45289033959040    9.82996337915976    4.67481967504526
C        11.90916808788683    4.76120270694791    5.50127679890477
H        11.61876252519274    3.91689628720188    4.85742831629572
H        13.00347534223259    4.76691678975409    5.63180489874191
C        11.23318177255378    4.66543327322250    6.79418705420614
C        10.04291515711179    3.93224284949370    6.93933090115578
H         9.64542711648841    3.40434305214319    6.08098746057900
C         9.39375634717093    3.84013933402594    8.15382142430589
H         8.48169128578740    3.26444469158641    8.23034666349037
C         9.91313272277017    4.46293577951804    9.27774726784596
H         9.40760239737029    4.38804495874097   10.22874765485502
C        11.10542386271377    5.16241532569706    9.16883840078402
H        11.53586586452611    5.62992778156888   10.04364192743557
C        11.75847623562659    5.25578267671839    7.95659816399955
H        12.70376623243386    5.77791351053279    7.90365068230139

