53
CSD_code = PADGIM | q = 0 | S = 0 | Stoichiometry = C22H29NTi | MND = 10
Ti        2.51759699571645    6.66167400863435    3.13460612294280
N         2.87744460667075    8.41973889274674    2.91839302596817
C         3.38632944290315    4.69043838991552    4.12334986852038
H         3.87064031796754    3.86137356284924    3.62431573395869
C         2.02914040237904    4.76398872126982    4.47045796994555
H         1.28098207020920    4.00752743629585    4.26813568148772
C         1.83214509331166    5.93561950086208    5.22677075563765
H         0.91905113177116    6.20954173971132    5.74341276742434
C         3.08517517879918    6.57839871477990    5.36803043717414
H         3.29675733274957    7.42978717150555    6.00748800273279
C         4.04384522177048    5.80971815642263    4.67423412403347
H         5.11650924681611    5.97553594594910    4.67454389232433
C         3.31889941787495    6.05968200936728    1.32814928103062
H         4.22826714908626    5.45687240437676    1.22262543869069
H         3.34794120648190    6.87382312748209    0.59382115257942
C         2.10041899697284    5.22624484198230    1.22782107855831
C         0.89134301990106    5.67102284606146    1.66779433795002
H         0.05138107051607    4.97183955191438    1.64311970045697
C         0.65455793992126    6.97358885788797    2.32675594093500
C         0.93854328965859    8.22210805344751    1.47502916837221
H         1.43527531373955    7.93540324882705    0.54112577899069
H         0.00523522336133    8.73615040050892    1.21392202405717
C         2.24742022067835    3.81735504225352    0.71000221823643
H         3.02873751194672    3.28287467127504    1.25206757465662
H         2.53595040963459    3.83734531000675   -0.34335667033398
H         1.31763348098567    3.25682287200465    0.80056410920069
C        -0.71627360560379    7.03126465715508    2.98574965453214
H        -0.85647971090236    6.19317560800216    3.67164902066857
H        -1.51007496494470    6.97984631100764    2.23130600148599
H        -0.84848755966816    7.95996291032240    3.53967354938001
C         1.86003520657256    9.20079762666659    2.25064315080404
H         2.30942670181711    9.90480013179925    1.52781492522188
C         1.01560887932455   10.01266909091176    3.21743194739959
C         0.81325659115372    9.57835844318309    4.52188441108575
H         1.29218379012848    8.65806938089238    4.84083471692394
C         0.02227876433814   10.30822345574182    5.39125756076460
H        -0.12677599289855    9.96180522873975    6.40420091475419
C        -0.57991330886239   11.48139773080035    4.96690966545526
H        -1.19607537500705   12.05246882030891    5.64573420388054
C        -0.38671652123190   11.91901951202686    3.66807844076910
H        -0.85318409044804   12.83332742946685    3.33068635660640
C         0.40652514092558   11.18917417171181    2.79976811048610
H         0.55533277614551   11.53828515098732    1.78680291986283
C         4.13632833405061    9.07772409550195    3.19381473414666
H         4.70378374206904    8.40103403170138    3.85507517722132
C         3.98946812614134   10.42401804268301    3.92201450641303
H         3.41204930196145   10.30137992650772    4.83545076513356
H         3.48720783451796   11.15598526110382    3.29445434600739
H         4.97365898730959   10.80888308655089    4.17988941173214
C         4.97835489074625    9.26850899275352    1.91702194181710
H         4.48953622206126    9.95409356104074    1.22820907209050
H         5.11716963312512    8.30807904283909    1.42297307420149
H         5.95275491535623    9.67817282125512    2.17229190562493

