54
CSD_code = PADGEI | q = 0 | S = 0 | Stoichiometry = C25H27NTi | MND = 10
Ti        7.61855665317100    8.62471606331484    2.34635117252543
N         9.20578144059511    9.51820809602621    2.68148752663561
C         7.06657935127755    6.87637467741605    3.78578722957569
C         6.01312440608544    6.91415325583471    2.85439610272296
C         6.54121221079208    6.63143450675898    1.58496625496072
C         7.92777739336331    6.42177850323054    1.72015490813389
C         8.25939107049471    6.57107490623883    3.08890065849566
C         6.44259932284636   10.16377001963393    3.10268164193669
C         5.67409645887349    9.87908296397763    1.88740114146707
C         6.26495100542736    9.57026076298324    0.68649109939798
C         7.70531034632745    9.44501106437601    0.44455766830463
C         8.57477970365843   10.68340071409078    0.68347245664842
C         4.17168184564116    9.79867004017544    2.00796984448712
C         8.03446764073059    8.76847443175873   -0.87577003999538
C         9.76135431596480   10.30161945514994    1.59847127142621
C        10.82211352282889    9.57281851126691    0.79337523237679
C        11.61935867148320   10.28351984166608   -0.09737363802328
C        12.57554747930947    9.63506107367401   -0.85777375037483
C        12.75170438278314    8.26691228975695   -0.73421526060431
C        11.96997122780131    7.55391941867076    0.15860161417189
C        11.01146428345926    8.20239562074628    0.91812153278673
C         9.92066843613590    9.43533038281695    3.84692179450659
C        11.30518054845653    9.66453531418694    3.93616167788352
C        11.96593806993805    9.54522894174420    5.14320109073123
C        11.28410473071141    9.20584284761473    6.29908812760702
C         9.91286367339748    9.00385702769428    6.23655188136186
C         9.23966756173697    9.12301140687684    5.03963544903612
H         6.95867814210299    6.92473857469388    4.86298267204493
H         4.96386413433957    7.02519382590120    3.09293845923199
H         5.96486593086804    6.48961587370428    0.67933399026921
H         8.59038875560325    6.06815696010042    0.93842447026224
H         9.21560294832576    6.33870232673484    3.54852102145372
H         7.03246832368343   11.08763991262301    3.09205020335285
H         5.81969297768614   10.13800101547900    4.00193296923192
H         5.60400785401640    9.24372284623745   -0.11998374761044
H         7.99064033714154   11.47468599818934    1.16783257988855
H         8.95386834637688   11.07884400043324   -0.26585324662406
H         3.87651330335318    9.31891745504375    2.94110543550230
H         3.72424207419277    9.25505733997932    1.17632295705675
H         3.75522872400275   10.80898590628213    2.01601144757517
H         9.09640336499826    8.53084300494663   -0.93563601828874
H         7.79454740388219    9.42661198910058   -1.71844517717509
H         7.46591095938962    7.84614863668802   -1.00170304574357
H        10.21906662601596   11.22565262361880    2.00087744011414
H        11.49274054589710   11.35338583985499   -0.19071543647316
H        13.18813798584998   10.19915471218204   -1.54597167985543
H        13.49961729651712    7.76095413630238   -1.32658238025023
H        12.10945079367228    6.48788130919997    0.26666880933619
H        10.40910191447789    7.64941312257172    1.62913431383650
H        11.87170071552551    9.91345653435575    3.05101362788803
H        13.03248449260944    9.71752737878752    5.17837057480728
H        11.80916253343969    9.11105448863632    7.23736717470470
H         9.36397851243594    8.76419621689589    7.13679929431578
H         8.15748925030398    9.02029583377623    5.00308860296680

