46
CSD_code = PADHEI | q = 0 | S = 0 | Stoichiometry = C15H24Br2FeO2Si2 | MND = 8
Br        0.59103983785445    6.04437398855285    2.78869193567685
Br        2.95169517863631    5.12902934137629    5.31379653981291
Fe        2.37526378491504    2.84141400849998    2.45458823547440
Si        1.33838840701947    4.16490911404471    3.94160022350286
Si       -0.41577552056020    3.75085670080165    5.48239164270955
O        -0.21917929290534    1.87997859546699    1.62612857409954
O         2.25533312827211    0.75760289561086    4.45074752490792
C         0.79117928287307    2.31873157598276    1.95067858901674
C         2.34098773198658    1.61879845761852    3.69459947272067
C        -0.98005937395725    5.37025097273675    6.32224977723080
C        -1.85183478099156    2.96860963855456    4.51143228601165
C         0.24212413930808    2.52944199216934    6.78514196932105
C         3.85839080927911    4.37203107652635    1.68681672775118
C         3.02037390626541    3.87259536690553    0.64839034339233
C         3.24904714879428    2.45871137537059    0.53083698517985
C         4.16841981747422    2.08066460789938    1.54406413925719
C         4.51024775065544    3.25808362737234    2.29229820407306
C         4.14880012458512    5.80948754943335    1.95477733310877
C         2.27361080395246    4.71281920803847   -0.33744241330065
C         2.74901627291154    1.58642486208069   -0.57629540092980
C         4.80810157062622    0.73772663192794    1.69861122540734
C         5.59389133763272    3.34197923267446    3.31905253381262
H        -0.16282940644701    5.83875963701867    6.86468860497108
H        -1.34177288958679    6.09006363756374    5.59252483723224
H        -1.78363888665406    5.18899388530919    7.03142206262105
H        -2.69000500718449    2.75303939876342    5.16638232449264
H        -2.21321480188154    3.62608161920042    3.72627141047744
H        -1.55383312363218    2.03309621300807    4.04680337016498
H        -0.52066337941021    2.29999489824400    7.52274500391279
H         0.54744080347264    1.59104250716599    6.33147564146401
H         1.09902072492047    2.93212542829224    7.31735235755134
H         4.46844787929352    5.97191784199141    2.98046099462803
H         4.95824765600645    6.13155652147225    1.29713582961135
H         3.28657409252179    6.43939767300066    1.75231474933792
H         2.94910434816622    5.04125382733345   -1.12877670826739
H         1.46163247169580    4.15233392378200   -0.79399652758159
H         1.85347478514090    5.59609557515456    0.13664846426091
H         2.66946544373217    0.55052282999819   -0.25468807774800
H         1.77171686162793    1.91362743078367   -0.92285360258050
H         3.43987301714538    1.63004432989611   -1.42009376847900
H         4.14067983553153   -0.05583417664591    1.37044372654016
H         5.71652459786750    0.69128766555044    1.09547941260690
H         5.08051491523728    0.55002218654336    2.73441115793673
H         5.67962840438258    2.41126756089947    3.87441924066181
H         6.54988122526408    3.53732221835526    2.83075151563948
H         5.40566836816379    4.14486654762917    4.02692153231096

