47
CSD_code = PADKIR | q = 0 | S = 0 | Stoichiometry = C16H20N6NiO4 | MND = 6
Ni        4.43070241057384    3.55063444673954    2.87022633732860
O         3.32504965906188    4.75276781989750    4.05119144415533
O         2.96530399066173    6.94136022852287    4.27348589929612
N         5.93513854822707    2.74438229725442    1.69188236881256
N         4.90824712585994    5.10212081653689    2.07353132444446
N         6.80046399545751    3.06370965838458   -0.30367826104587
C         6.41899524303650    1.55881369720506    1.24166286209733
H         6.34915183307651    0.66248173543987    1.82310575451550
C         6.96073508911412    1.74076846230643    0.00418783745906
H         7.43167173692484    1.05613503244144   -0.67015823305701
C         7.16754274426319    3.70942206663325   -1.53252154447621
H         6.27480135178752    4.00313728763122   -2.08895873593637
H         7.74956836197065    3.02020446813419   -2.14082039245597
H         7.76613244255496    4.59969489951876   -1.33163071701885
C         6.17251572850225    3.63187662770972    0.74479196255165
C         5.73555047207830    5.05121318987040    0.88491588355522
H         6.59785738923836    5.72844265346235    0.98338764557900
H         5.15078868003546    5.35895871214695    0.00687429557458
C         4.32692536398147    6.16678547530083    2.46280098481137
C         4.41589510178754    7.50260217334784    1.82145326976123
H         3.94460302032393    7.47788451365796    0.83798545848453
H         5.45377708590502    7.81253072715431    1.69446396754026
H         3.89033068618433    8.21701937040879    2.45302020612902
C         3.44346717163690    5.96826029227606    3.72224168231884
O         3.19209548831992    2.84206609432936    1.11860257805964
O         2.19823749656518    0.88472947222046    0.69917240164251
N         5.82639659863608    3.34383782264729    4.73650891888316
N         3.72710425556836    2.03087254857033    3.61915518309720
N         5.33842194436344    2.86600438879300    6.83188494867115
C         6.67016856032159    4.03267117086654    5.54819491932973
H         7.42449807846560    4.68082261266184    5.15040742845702
C         6.38325992212937    3.74850479439866    6.85046568721654
H         6.81800017306845    4.09147967643879    7.76648592186268
C         4.65681814729397    2.32044186360856    7.97127073163848
H         3.63103579433613    2.69327495281282    8.01593085716846
H         5.17812622721553    2.61861899647389    8.87879090898950
H         4.63270049671168    1.23025920259972    7.91704503423457
C         5.03498905598062    2.65534935281823    5.53129718482975
C         3.94285595782447    1.76931455595012    5.03094483898828
H         4.20815354519783    0.71142810637542    5.18412657984808
H         3.01523580610014    1.97425427533130    5.58289244461699
C         2.92085618170844    1.32592701257488    2.93269219068612
C         2.14516052004021    0.16281392134122    3.43484315243075
H         1.40034525878840    0.49541800594671    4.15846246479338
H         2.79215709455118   -0.56757826887500    3.92240712231232
H         1.64473609749767   -0.29780522716013    2.58405284037925
C         2.73883206707218    1.71638801728840    1.40762436144036

