54
CSD_code = PADMEM | q = 0 | S = 0 | Stoichiometry = C25H25ClNPPd | MND = 4
Pd        5.32411959808492    6.25571945357888    9.09709347884924
Cl        3.49973721857139    7.42831097562028    9.63466390676120
P         7.45346470150581    5.53239404068215    8.81491044232640
N         6.56927126531790    4.76219611152632   11.12809345095624
C         8.02314650136589    6.84901049644316    9.94674358057840
C         8.97608391216978    7.78365085790432    9.61707805441551
C         9.04757640440242    9.00274966444678   10.30895149283090
C         8.10555700361145    9.32845847902948   11.24500567994003
C         7.10499497079805    8.40301237368788   11.61723244656759
C         6.08816177983511    8.70248689987863   12.54707235513780
C         5.15204057506140    7.76213163193378   12.88115047861836
C         5.24334094805606    6.44964909766402   12.39643977406966
C         6.22830336299944    6.11006587189833   11.49147025636204
C         7.12043298097076    7.11883294370187   11.01634337877270
C         7.57904811564891    4.24228874050214   12.03878701193642
C         5.43389358580017    3.84944130900206   11.03609077133385
C         4.40751242503552    5.49624877862385    7.44155874805407
C         8.52345424255173    4.07797984748844    9.01943388996174
C         9.80152362559251    4.17410213721311    9.55574830575934
C        10.58266429459047    3.03875427938515    9.67627767960379
C        10.09277042286915    1.80955307344321    9.26380026622542
C         8.81926460695123    1.71247990557785    8.72576404889073
C         8.03469934996006    2.84512802087896    8.60384149973325
C         8.06092335630784    6.23406291826856    7.23599665032527
C         7.33632271753558    7.32704391393740    6.75724389768433
C         7.70180796162143    7.94297176715281    5.57684581966167
C         8.78425877362487    7.46308537451648    4.85359415371401
C         9.49589497129812    6.36897531095629    5.31444703806646
C         9.13889319876648    5.75347877046465    6.50292469669928
H         9.65149854997036    7.60321111648665    8.79152407567504
H         9.81947562052079    9.71040029375310   10.04386966483707
H         8.10533228603254   10.30380236793497   11.70919771061453
H         6.05576764901593    9.69055244493817   12.98146730129558
H         4.35356569905021    8.00881211448252   13.56430961848362
H         4.54498562296529    5.70878709131671   12.75778514839028
H         8.43881738520708    4.91067802228908   12.05619001837883
H         7.19077310642327    4.14425337131252   13.06154395777478
H         7.90484751637988    3.26278615357048   11.68975582970943
H         4.62854264405252    4.32710796148663   10.44850211066626
H         5.76407691685185    2.94565979265323   10.52149075439497
H         5.04662899254143    3.56430611463089   12.02170580197633
H         3.68018595804416    4.75609683240697    7.79690300118837
H         3.88342788040713    6.30687777202078    6.92819730965158
H         5.13609603542059    5.03094943296087    6.77028794871590
H        10.17827363007551    5.13598517742275    9.87530170262725
H        11.57717207389879    3.11113340303373   10.09221889262866
H        10.70579066719937    0.92574158639275    9.36106453599100
H         8.44054187861562    0.75366418809175    8.40300830731920
H         7.03819559213892    2.79077997140090    8.18440881383771
H         6.46973290342863    7.69020906962381    7.32768354462312
H         7.14199771861981    8.79189153798695    5.21314867977986
H         9.06775679042433    7.93931939616799    3.92663908826196
H        10.33400536007806    5.99090996604540    4.74687631044210
H         9.69794865172413    4.89892177618879    6.85871661890338

