71
CSD_code = PADMOX | q = 1 | S = 0 | Stoichiometry = C24H34ClN6NiO5(1+) | MND = 6
Ni        5.00604641896293   14.39493549907081    7.16845265889242
Cl        5.01659866750177   12.19564882749262    7.18961488288007
O         6.92089199880045   14.59865841698339    6.17096525173073
O         9.21418267694718   11.56588214621150    8.74993824965362
O         4.93503870766144   16.60070799518317    7.01715562524409
H         4.35518804603284   17.04031678835931    7.64584656759722
N         6.07522155377323   14.39584788526610    8.77122797095594
N         7.68522745039519   13.61789822481097    6.49499120227221
N         8.73793801846291   12.15262032510538    7.75711310078067
C         5.50800780238722   14.93935331041841    9.84616830061383
H         4.54841951776672   15.41625022082056    9.69379344975270
C         6.06683046192190   14.88284095364537   11.11016769174758
H         5.55789087155564   15.34094107960021   11.94234714971488
C         7.27191844457177   14.21684432089709   11.27641832188369
H         7.72977595865451   14.13122105645668   12.24910817616089
C         7.87898355086587   13.66460570789560   10.16646235635395
H         8.81166612959391   13.12936581130511   10.24371658679094
C         7.26451396113036   13.77748483695433    8.91646349160755
C         7.90637034272801   13.19670156689313    7.74849398217093
C         8.43526464654703   12.83083970360008    5.50999793401540
C         7.50666761680987   12.43968485037802    4.36354515993933
H         6.60592786499015   11.95832311318352    4.73304219580397
H         8.01875419096771   11.76877287761594    3.68138851102640
H         7.21577825137077   13.33362322260476    3.81762780240749
C         9.54535897953745   13.74572460894264    4.97935349255765
H         9.09017623732063   14.62143785434735    4.52200187299611
H        10.13665191140688   13.23142745034516    4.22871067978264
H        10.19835531455707   14.08428251370311    5.78006896444781
C         8.94662180666188   11.64999152509732    6.37774899708972
C         8.07930832121653   10.38900002936603    6.28697917579474
H         8.41917565624335    9.68196947752859    7.04042449734485
H         8.17461631861824    9.92610639154664    5.31043157836701
H         7.03295855136578   10.61329875585950    6.48288664537367
C        10.41089414061891   11.27247429520628    6.19831533747741
H        11.07501407266865   12.11847052037283    6.34486771173249
H        10.57153492612140   10.85908404718909    5.20752247528714
H        10.66559674169075   10.51649243187987    6.93725668234490
O         3.12186901268258   14.58023264718896    8.22647633774497
N         2.34552916758460   13.60839052982400    7.90394271688015
C         2.11307628820927   13.18706253611547    6.65357527208575
N         1.27584148132124   12.14741355671614    6.65177914708205
O         0.79004772288910   11.56395298932443    5.66158469998873
C         1.07729566146251   11.64531988057857    8.03273646797381
C         1.59585173188279   12.82728933053479    8.89442545486231
C         2.52819490886263   12.43686847996594   10.03809896793630
H         3.42605594727037   11.95218309133256    9.66585251060397
H         2.01739581320367   11.76928207115958   10.72445941159227
H         2.82399032067290   13.33150142068792   10.58037415612108
C         0.48990859850068   13.74672911582565    9.42561933384647
H         0.94793259420162   14.62263523502090    9.87970688214639
H        -0.10081383482936   13.23581960968045   10.17907269283535
H        -0.16393736387546   14.08485116251991    8.62547861355345
C         1.94655441008692   10.38522508566618    8.11793467264688
H         1.60240241257232    9.67778266713081    7.36683004160411
H         1.85843715944720    9.92216150697422    9.09512024247935
H         2.99141378676837   10.61047930553982    7.91500535766796
C        -0.38519230785018   11.26759249535746    8.22436039656775
H        -1.05065576595382   12.11318103966252    8.08168515422786
H        -0.53800610502124   10.85539787098911    9.21692934276618
H        -0.64535636569823   10.51058236536287    7.48838575009413
C         2.74300921496821   13.76492204219125    5.47614490778515
N         3.95413543651396   14.34020899719065    5.59531222615983
H         5.79826844426203   17.02355327507667    7.04322042285321
C         4.51452749563603   14.88372529655864    4.51980354759256
H         5.48482721990342   15.34021356921736    4.66439712284884
C         3.92152670860077   14.86307694624852    3.26957189819065
H         4.42309739433914   15.31824679800999    2.43137314909509
C         2.69188894118310   14.23952008535545    3.12501483518878
H         2.20635121518132   14.18416040464492    2.16348537203899
C         2.09333532602778   13.69078751566392    4.24213292829939
H         1.14043120052930   13.19002243456786    4.18119523601437

