102
CSD_code = PADPAL | q = 0 | S = 0 | Stoichiometry = C52H45O3PTi | MND = 5
Ti        7.20881896826722    1.76570622226812   14.03683235819393
P         5.24035511721147    1.26197676363385   15.63382278763860
O         7.79740409415333    0.84499802121652   12.67851170475302
O         6.22768705217367    3.15539986738829   13.59347401295777
O         8.32647347181742    1.85098263173663   15.38527912540693
C         7.30745854941204   -0.20544910798888   13.41493608741957
C         5.45113430996896    4.12880359052515   13.15424480980261
C         4.95732138241866    4.12802354783789   11.82523598220344
C         4.11153538415406    5.14073962609220   11.39430265000503
C         3.72663364018121    6.16455317354847   12.23927192129450
C         4.17428607894314    6.16083626877636   13.54535492754531
C         5.01749778263773    5.16263731613436   14.02186478500965
C         9.18658132420534    2.63190407011452   16.00642903994119
C         9.42877914731772    2.50535518292099   17.39398927584091
C        10.30453417433586    3.38617653390987   18.02018318737154
C        10.93038669319469    4.40178956354790   17.32182820318150
C        10.69461911562621    4.53880868525341   15.96504011299110
C         9.84911262900780    3.66266013877719   15.29995615773924
C         4.76754116244522   -0.44460874836690   16.14610395230083
C         3.58529144314539    1.89104045511080   15.11555761089032
C         5.33169837267640    2.02241983131202   17.30566231280350
C         8.31667973172576   -1.05871340243443   14.04905420610686
C         9.66440221465763   -0.94745924876140   13.67385121030513
C        10.64303707376979   -1.70835339432740   14.27844255461711
C        10.30995888027205   -2.62603570349832   15.26334455912093
C         8.98033823845230   -2.77190839824868   15.62821302691814
C         7.99818564863467   -1.99863246530589   15.04167055545771
C         6.03134917580104   -0.77111182373924   12.97111630478683
C         5.78271084826021   -2.15140759851166   12.89951957415802
C         4.56193727200462   -2.63179775679601   12.47138591430202
C         3.55532169029400   -1.76273532074180   12.07659577887243
C         3.79423937750374   -0.39692150225316   12.10453838560516
C         5.00491802511954    0.09267133871118   12.55145338747743
C         5.31751884683536    3.05217990238385   10.88637819314885
C         4.33280770031238    2.43832414169623   10.11234721612348
C         4.66161525857910    1.42032949798088    9.23814357242065
C         5.97760899470880    1.00476204118608    9.11749566980174
C         6.96473339591584    1.62079888066445    9.86718796566657
C         6.63984757056841    2.63733272526225   10.74856467697505
C         5.43677593430793    5.22248788533788   15.43188058589067
C         4.51220582188226    5.56134636337783   16.42196433156141
C         4.90659736720319    5.70041205908911   17.73954853423157
C         6.23283683021687    5.50886809248965   18.09338301331853
C         7.15760187564578    5.16005023542856   17.12261268525321
C         6.76142138375425    5.00572580306615   15.80536127240637
C         8.74749833995689    1.46808688000365   18.18199722147216
C         8.58997036687787    0.17341611102064   17.69043419564755
C         7.94297128233307   -0.78722359997123   18.44723158952839
C         7.44288888752452   -0.47636049318634   19.70081063827454
C         7.59517217725378    0.80743718985088   20.19886631052143
C         8.24032867295651    1.77114768736143   19.44667069767245
C         9.69988310975734    3.76099284503610   13.83355768061611
C        10.03058593488609    2.65107078214477   13.05118920118882
C        10.06615495810166    2.75366000279138   11.67008096888621
C         9.74784505204456    3.95352386765656   11.05316755086912
C         9.39894255661311    5.05387792970248   11.82087093889415
C         9.38299315512503    4.96421565069667   13.20158411988200
H         3.77042650388838    5.12897794057338   10.36915465752612
H         3.08458714939956    6.95604326724446   11.88400622056469
H         3.88697405270797    6.95949765730052   14.21413099760560
H        10.50466132236584    3.25837536977156   19.07423376946709
H        11.60422838965959    5.07617671783555   17.82791810615702
H        11.19019053617841    5.31637531375821   15.40122804611745
H         4.58119559882586   -1.06295281962878   15.26972516892727
H         3.87103750638747   -0.41154987664125   16.76471202449619
H         5.58510240863338   -0.87191856811591   16.72444048233462
H         3.23501844107336    1.32756270064228   14.25253125896238
H         3.66036905151509    2.94288177689675   14.84323982225841
H         2.87431500467864    1.78099295995236   15.93454914698121
H         4.43916280351637    1.77299256500532   17.88040473784678
H         5.41476560169561    3.10235072786473   17.21763697732353
H         6.21153428386812    1.64702758155160   17.82366047925483
H         9.91391788244532   -0.27564946356823   12.86355336150893
H        11.67406486280826   -1.60149347455628   13.96980242437561
H        11.07412842608607   -3.22745500705870   15.73263421932809
H         8.71072974026192   -3.50089346867933   16.38069987016084
H         6.96959811292234   -2.11501790207898   15.35286122849402
H         6.56627642707931   -2.84844447425604   13.15727125517214
H         4.39646653317706   -3.69913149568179   12.42632568805424
H         2.60443872202758   -2.14562729066742   11.73780315755400
H         3.02677018534556    0.29069502496077   11.77572081853409
H         5.19337161227624    1.16387757957087   12.56426692908415
H         3.30320969802956    2.75229850698719   10.21547643507412
H         3.88862746499116    0.94462763421780    8.65163593333552
H         6.23027116292166    0.20359664298675    8.43868447608844
H         7.99373083030775    1.30872997348342    9.77247937979710
H         7.41631421812529    3.13514036997023   11.31685178619037
H         3.47587942434161    5.71117065159954   16.15424832979119
H         4.17840318392230    5.96532195096915   18.49267952255566
H         6.54361916183174    5.63240585158721   19.12012791206103
H         8.19348012969279    5.01899753369292   17.38973964531890
H         7.48799641677278    4.75285538998096   15.04608984319750
H         8.99057107819645   -0.08679839091258   16.72101077044289
H         7.84118714223051   -1.78900928733359   18.05745750862156
H         6.94019781323726   -1.23015060545420   20.28904856294255
H         7.20777788077851    1.05843201993275   21.17586912881574
H         8.33763020365786    2.77577897210105   19.83193352135462
H        10.35654695613865    1.74326661889714   13.54671088483227
H        10.35907186387749    1.90065566457412   11.07503683510835
H         9.77542995036199    4.03470192909179    9.97635804311900
H         9.15071041921803    5.99004493974327   11.34164355429174
H         9.14888029938571    5.83872945298730   13.79441178568420

