34
CSD_code = PADQIU | q = 0 | S = 0 | Stoichiometry = C12H16As2S3Ti | MND = 12
Ti        3.49911093766249    5.15138589038710    9.68764022751968
As        0.18184828236429    6.76809109774702    9.46813476707867
As        1.00594577667496    5.35145014679193   12.47935760755330
S         2.29712411432838    7.03647710319884    8.92887696289841
S         0.20807010932394    7.28621734487198   11.65509407763520
S         3.14420959919877    5.53258996700655   11.99081166669323
C         2.61149242981396    3.00719666195349   10.19456175888433
C         1.55077744885463    3.74472279253740    9.62031475817191
C         1.88988615059666    4.02844286077687    8.28092484006813
C         3.15569684616082    3.47435494306654    8.02751387682555
C         3.59746182572937    2.83303408632277    9.20815539009260
C         5.16417041477835    6.16919165283523    8.37118501233461
C         5.61865067630456    4.86257934476895    8.62840346117606
C         5.83928985683847    4.73924411096140   10.01522240459743
C         5.59254056903111    5.99536183160747   10.60577166172873
C         5.16214293636988    6.87516345822502    9.59885357689928
C        -0.39769383587239    8.58874622746571    8.92550717556270
C         1.16800059793009    6.06950215205109   14.32321601595085
H         2.60347274510308    2.55377722223674   11.18036767660443
H         0.56745608314009    3.88357531624009   10.06214614361725
H         1.23841352987341    4.49178345565321    7.54673475042151
H         3.62994179649288    3.42693849620742    7.05513387969553
H         4.47661619612033    2.20783774860601    9.30111884314646
H         4.97711075869391    6.60318458089998    7.39538567897082
H         5.87001340512539    4.12222699325624    7.88108011737337
H         6.27123310636656    3.88461624798047   10.52189555001922
H         5.78257233395951    6.25824992611105   11.63859734430940
H         4.95829017931477    7.93190665076488    9.72343268265037
H        -0.35208472251887    8.67269162723681    7.83968607454174
H        -1.41989448175768    8.77229477258364    9.25537801591177
H         0.26215848396247    9.33226829611888    9.37014730318095
H         1.68786414433492    5.34431592894799   14.94914076489458
H         1.73417110700086    6.99951013606342   14.30689805740070
H         0.17944059872382    6.25797092852280   14.74081187559457

