77
CSD_code = PADSUK | q = 0 | S = 0 | Stoichiometry = C29H40Cl2N2O3Ru | MND = 5
Ru        7.07602769373716   10.20793782356292    4.11218875879244
Cl        9.27652077888281   10.32636109935382    3.37674479492957
Cl        4.79596221580032   10.41476236291575    3.93168322096747
O         5.10471159234961    5.25664135961874    4.76297927142843
O         6.03873032046113    5.80548209133228    1.51358459354204
O         7.16962642867793   12.47434548122209    4.42264048397057
N         6.11035319300076    7.30893917549967    4.71514883737553
N         6.71747113197973    7.61948728060915    2.70892836753547
C         7.02238463756690    6.71114040743504    6.87683774924350
H         7.32953643422733    5.74015375410299    6.47714188121598
H         7.81323970110964    7.42093300249978    6.63036711461490
C         6.89442521330670    6.60589937346136    8.39579105232418
H         7.79890942119879    6.11163772573195    8.75734250686699
H         6.04995264276753    5.97337815726780    8.67128891500859
C         6.77881804107251    7.96725451775065    9.08108799434349
H         7.20444205768986    7.90051934839273   10.08467881070614
H         7.38881428440281    8.67866417389181    8.52477303216926
C         5.35106975705835    8.50681416026653    9.21053589791037
H         5.40537553076988    9.59322972199235    9.30615109547106
H         4.90199264850746    8.12268046302301   10.12936307020847
C         4.41340190700413    8.15700974652950    8.05417211794493
H         4.06907056829147    7.12757462150750    8.15765281862782
H         3.53285472012869    8.79595823331602    8.14197429937322
C         5.02015327260226    8.35855952787098    6.66580967731918
H         5.69810072535831    9.21424068276703    6.66802568471489
H         4.22460231951166    8.59584053025412    5.95566674404024
C         5.75075319234691    7.12985622289045    6.12294591986473
C         4.78784363575831    5.91725656145359    5.98491629368974
H         4.90275664160546    5.18946784355432    6.78818006450814
H         3.74451305808535    6.25356571067764    5.94184709424061
C         5.71414020067648    6.19045530665772    4.00403718090774
C         6.73437917620640    8.21459279268855    3.92320541623479
C         6.09747570104698    6.38920502182384    2.73048434559704
C         6.33217737261668    6.84832965212657    0.58322880121269
H         5.38591741016966    7.25243484057330    0.20081177673190
H         6.89681255540844    6.40554253480764   -0.23713497948373
C         7.13321791224144    7.93827103138073    1.34706062344852
C         6.67903097871372    9.35933112090683    1.01135058399246
H         7.26140453062610   10.05130931400761    1.63702299866067
H         5.62450895353451    9.44096008594928    1.30014440253564
C         6.82162155807157    9.73654301587491   -0.46276246482095
H         6.62115128240403    8.85432768195342   -1.07279044350487
H         6.05369471431211   10.47282200116269   -0.71077396122487
C         8.18012842198256   10.32868127396182   -0.84693413397605
H         8.26751283262924   10.27431354869234   -1.93491570009899
H         8.20111012151049   11.38701730528345   -0.57778771828878
C         9.39238618418070    9.65052537577549   -0.20315536253550
H         9.56320132729974   10.05636257908961    0.79460967304607
H        10.26920551130911    9.90210784900540   -0.80299722986364
C         9.28019027550637    8.12974191091310   -0.08599366300460
H        10.28594300547105    7.70599811330169   -0.10762696810594
H         8.73721043281370    7.71971706492648   -0.93987307081709
C         8.64392733233810    7.69205126269379    1.23220939583054
H         8.81448154861489    6.62235960071773    1.38374231833522
H         9.13732784585235    8.22613589578278    2.04736095686497
C         7.60055195513255   10.32988599881116    5.92702760930286
H         7.95385145131830    9.50966914122663    6.55556615538756
C         7.59385487341526   11.60525188503946    6.54521990218493
C         7.81564260332316   11.79503317305455    7.91950954425863
H         8.00588501056315   10.93153817734379    8.54004125312761
C         7.78779078425033   13.05458458734850    8.47493424716371
H         7.95567793101617   13.18324418544964    9.53334330284875
C         7.54519156560460   14.15947550628219    7.67196152293305
H         7.51896848600597   15.14767940060733    8.10543718768852
C         7.34105193057225   14.01453160499553    6.30827313489253
H         7.15833181754277   14.89572495518594    5.71363630190041
C         7.36069865232136   12.75156351766651    5.73688812529807
C         7.23990033042833   13.52135703352711    3.45323177958167
H         6.55830333980363   14.32829343415439    3.75864642794032
C         8.67619662782072   14.02624737143495    3.33000019336551
H         9.01698739794497   14.48600602650952    4.25473556558331
H         8.74474910408986   14.75578382413487    2.52775773888271
H         9.33103587308553   13.18561954552190    3.10320732183522
C         6.75688626159538   12.92868131925655    2.13685134546888
H         5.81122973807539   12.40648205808959    2.28745146301560
H         7.50773121211149   12.23656333854102    1.75683628210346
H         6.60641210315920   13.71455657503432    1.40157265465397

