58
CSD_code = PADTOF | q = 0 | S = 0 | Stoichiometry = C24H28N2O2SZn | MND = 5
Zn        4.96646635198271    5.03960510013853    1.58103860401400
S         4.91392146157422    4.45330235867963    3.95440970620062
O         5.91638941960912    6.59018712692413    2.03657649361199
O         6.10302695424947    3.54632292899120    1.30814621660696
N         4.69282027893513    5.45821246573494   -0.46992393101697
N         3.30213371066826    3.73024641682450    1.04920336885709
C         6.53204918204338    6.50794556963926    3.18705075569003
C         6.23513302001529    5.61942808752912    4.15313713651266
H         6.72735658860749    5.55628638556109    5.10339243139768
C         5.73703976736928    2.93084372802991    3.53937331449217
H         5.79671366558103    2.23492851496408    4.35199809312286
C         6.19432985729896    2.70066677522441    2.29270654666841
C         7.66906464500505    7.52492499922306    3.35359353678077
C         7.07824046965586    8.91983399561406    3.12056104827606
H         7.86631634282185    9.67074195377879    3.11408823571002
H         6.36859390691832    9.16375684068360    3.90847224133183
H         6.55542394707312    8.94291094386521    2.16828429573068
C         8.34097562001035    7.48526940932477    4.72441752308760
H         8.80685482930335    6.51948135599734    4.90442648258359
H         7.62252764640825    7.68339612597996    5.51617197226750
H         9.11569559889415    8.24931838802977    4.76707521499252
C         8.70805725918317    7.21570778681775    2.26918159866226
H         9.13774227461869    6.22905680238005    2.43120323750717
H         9.50797610117401    7.95409048190889    2.28470742612066
H         8.23370095803340    7.22491789705196    1.29125573116823
C         6.86626062624329    1.37388381381110    1.91078142613490
C         8.26933024975231    1.70797014982575    1.39287304605663
H         8.19950013993378    2.44955671736390    0.60110347875985
H         8.75754142452612    0.81556512295244    1.00481174429661
H         8.87742758787920    2.11875267317632    2.19616846873533
C         6.97247231800941    0.37572601675535    3.06097725073219
H         7.55961646998642    0.78599520802871    3.87856341385263
H         7.46534820911780   -0.52896153910541    2.70787852846896
H         5.98841714245209    0.10394700363193    3.43594743336890
C         6.03523687289336    0.75715689759386    0.77868350731840
H         5.04354587596352    0.48820279927693    1.14050735442496
H         6.52082221410271   -0.13764357948459    0.39351856423184
H         5.92536893105075    1.47509542574729   -0.03123342919249
C         5.38842093505585    6.31297301749858   -1.18189632144455
H         5.78566309801026    7.15886430178150   -0.64049759519808
C         5.61060394049544    6.14858775639938   -2.55307663471809
H         6.18418357898239    6.88316644913986   -3.09597472909947
C         5.10079983377825    5.03864679708087   -3.18333536740213
H         5.26349054225068    4.86924275187300   -4.23826896566835
C         4.36584784609387    4.10231135815854   -2.43713835448615
C         4.18178361699146    4.37159736098936   -1.06318424520934
C         2.70072184135228    2.85977111898978    1.82789977654031
H         2.61288989226163    3.13199209347527    2.87021750310395
C         2.19693793053193    1.64257585841317    1.35818160150762
H         1.71712048315614    0.96263177452888    2.04435473256821
C         2.32247621218613    1.33756554571191    0.02461490145565
H         1.94218409759207    0.40956533245761   -0.37759791775417
C         2.97086109238715    2.24897761835364   -0.82703347725006
C         3.45854100250949    3.44083915187470   -0.24979567417100
C         3.82964921466550    2.90537418990653   -2.99276742555223
H         3.97945404768895    2.72044048773090   -4.04642610076161
C         3.16666359938806    2.01301052277861   -2.21779166158113
H         2.77856927569709    1.09633736437042   -2.63761211242721

