75
CSD_code = PADVUO | q = 1 | S = 0 | Stoichiometry = C29H36ClN8Pd(1+) | MND = 4
Pd        2.51970078463025    4.02887238274234    8.60793086085432
Cl        3.35295516119588    2.55499710512019   10.01362745281267
N         0.07120090676439    2.00081280909262    8.20377141593715
C         0.87402474822615    3.02162177677437    7.92706700123524
N         0.36140178261016    3.64974362805730    6.80016933040404
C        -0.77020223476138    2.97933746900892    6.36693127118283
C        -1.62392907439491    3.18718960296557    5.29851258597016
H        -1.45746501298418    3.99625826367378    4.60726394228857
C        -2.68274078296743    2.30643919644399    5.16922447160155
H        -3.37334773253568    2.42817830206565    4.35002373310279
C        -2.87889248768816    1.26237104121703    6.07183947298493
H        -3.71826216478615    0.59990254197400    5.93190954203571
C        -2.02596776872219    1.05118631592321    7.13961496273537
H        -2.18843204974116    0.23872178110123    7.82885862144487
C        -0.95907402440423    1.92581178297574    7.27931992968434
N         1.92900082144001    5.20393212618754    7.20013753890682
C         0.95993009643327    4.81168720217061    6.36578642335806
N         0.64115965375949    5.45897364005701    5.27788517626227
C         1.39021695847470    6.56138156143768    5.01538219578911
N         1.05536745401617    7.30426764865836    3.97628967079831
N         2.46910045292381    6.94139494088824    5.74814905942466
C         2.70252598218139    6.22448900023809    6.81378735278624
N         4.93917894646886    5.95074339201327    9.45772470923390
C         3.93375232291159    5.50364120841036    8.71449821918239
N         3.76227009670655    6.40683086859265    7.67442244188862
C         4.70394383393942    7.41724251449250    7.77441081968000
C         4.96550999050904    8.52721856712656    6.99143303576451
H         4.38457456186075    8.72932610676460    6.10724036365338
C         6.00305069783778    9.34541015725661    7.40087065548256
H         6.24495268285028   10.22126839299195    6.82017599121353
C         6.74643378888186    9.06469958923635    8.54621497332719
H         7.54677289149583    9.73060484513544    8.82730212171588
C         6.48801832313517    7.95505627857875    9.32991595804111
H         7.07211012680966    7.74891152869152   10.21189313392239
C         5.45190193590535    7.12524357972767    8.92916750152514
C        -0.06457205852699    6.91261246244249    3.14080419301530
H        -0.41296799417750    7.79933713734036    2.60972448540693
H        -0.86300802598700    6.55687025679680    3.79635050162636
C         0.30458854182697    5.81502246908107    2.14784053321341
H         1.07361391513783    6.15372240727527    1.45956603663334
H        -0.57326327086881    5.53731817382836    1.57160313211868
H         0.66715312669951    4.93778774024192    2.67677463013397
C         1.85234163667402    8.46795568917473    3.63506721278567
H         2.11151465900990    8.98075709228663    4.56448380922666
H         1.23486272055869    9.13034696064038    3.02713769199960
C         3.12865977959388    8.10170638598147    2.88420439006129
H         3.73629989994517    7.42943623280298    3.48378407878335
H         3.70080173277963    9.00244224341872    2.68139705937697
H         2.90042165750436    7.61993445045537    1.93785245396577
C         0.23289943596383    1.20419001132352    9.39961742428773
H         1.27592481926321    0.87805803362396    9.46084550080666
H        -0.41718854649218    0.33159549964227    9.33973910106009
C        -0.09060210365840    2.05155146042470   10.63531156185806
H         0.49472797023343    2.98387890190623   10.57278859336075
H        -1.15230515187360    2.31059139294363   10.64151942204738
C         0.27949569387841    1.32110297021297   11.92223295518057
H        -0.25263946215583    0.36907838632531   11.96887217384201
H         1.35035551191499    1.11409676447172   11.91029823561167
C        -0.06203147297359    2.15569806417231   13.14933802562006
H         0.46940927665010    3.10382186941137   13.12088360402918
H         0.22486945563381    1.63024334221583   14.05549185196623
H        -1.12950133568378    2.35982053940671   13.19476382165778
C         5.30126671282192    5.32223033772875   10.70864317592802
H         6.24207465850908    5.74316042467782   11.06257450791560
H         5.42485412254801    4.24871807074815   10.53452095337267
C         4.18147671938522    5.52806577401321   11.73514116368420
H         3.23070764752254    5.21882215740067   11.26979107263781
H         4.10812613944325    6.58599377520909   11.99915017224064
C         4.41314528005321    4.68859513858033   12.98739564346567
H         4.43652449165991    3.63606381447538   12.70218138770965
H         5.37843386471410    4.94561310194193   13.42756188922361
C         3.31009858971271    4.91168401262141   14.01336621097773
H         3.28089525323805    5.95135050060568   14.33177804452747
H         3.47635345188959    4.29019529215871   14.88831824603818
H         2.34264098854629    4.65386351424802   13.58933311637290

