34
CSD_code = PADYUP | q = 0 | S = 0 | Stoichiometry = C8H19N2OReS3 | MND = 5
Re        3.34138330918707   14.80527678530056    4.91852745470513
S         1.82416730482231   13.91770063453933    6.43792235772949
S         1.71906447572203   14.31475805748856    3.32119737660643
S         4.96325604384580   14.76771788692317    3.00563100979279
C         4.73624670359669   13.45525697721409    5.79621005876014
C         0.24381006268891   14.38408126359104    5.63526040069904
C         0.20416333471976   13.84453028093859    4.22614797115931
C         4.05103363554972   15.55875862676294    1.78629380653199
C         4.44907469513500   17.67157358672487    2.87960247232869
C         2.43034367473166   17.36928687847539    1.56432467561865
C         3.43612046991131   15.52695773104397   -0.58564110799847
C         3.86772770942568   13.45060720761751    0.61223987698381
N         3.74369839495390   16.86173624063537    1.90961380087111
N         3.74228459432548   14.88792473951121    0.67306292304752
O         3.58776920824732   16.33841354310980    5.53451062083190
H         4.57525982722321   13.32452986737114    6.86510723458004
H         5.76550389491566   13.77859206634392    5.63509572775211
H         4.59954962371773   12.48272381256693    5.30735001300195
H        -0.55271527141440   13.96045412246765    6.24714478565930
H         0.18185666891953   15.47417876945234    5.64685479877452
H        -0.63640707239053   14.24858368638821    3.65857398536392
H         0.15699961602512   12.75344062277313    4.22519188189765
H         5.50871046972723   17.42463995152366    2.86088608055759
H         4.07645305370616   17.50846637318210    3.90112251795453
H         4.31348150015169   18.71786830572149    2.61233810479469
H         1.81577415011036   16.58308330580007    1.13729471002712
H         2.50497101482383   18.20861675547609    0.86995726769621
H         1.94180108135144   17.71248686000145    2.47947081573232
H         3.70473508512417   16.57927672576022   -0.55227493438811
H         2.37864748350086   15.42700311001867   -0.84136299401908
H         4.02477082156476   15.04389247434573   -1.36803174135735
H         3.68218111943857   13.02433620241757    1.59636692617233
H         4.86799831817869   13.15576387115739    0.28620337987584
H         3.12808499846400   13.06298267735662   -0.08639225774457

