65
CSD_code = PAFCOP | q = 0 | S = 0 | Stoichiometry = C25H36N2PtS | MND = 4
Pt        1.48912473558037    3.04606494935071    6.76803564986993
S         2.55532451472520    0.75114509566445    7.22405274032834
N         3.71947031294388    4.29105617298611    4.99832306917755
N         4.54004824995354    3.55650042908954    6.83927109451351
C         3.37674980334737    3.70200887469115    6.16421287378985
C         5.07471714845171    4.50972073106925    4.94481664484129
C         5.59234507684473    4.04374114765896    6.10154321884313
C         2.82525513851648    4.69763433341361    3.97565284939937
C         2.04276371232443    3.75151111597573    3.30748456371721
C         1.21190600952969    4.18272462297051    2.28497395113908
C         1.13696458174556    5.51787274932834    1.91807997831144
C         1.90615199164766    6.43860474578499    2.61214762731104
C         2.74902957553257    6.05113493418838    3.64305385482814
C         2.05248558404730    2.31421655134727    3.71421178816246
C         0.24878659086642    5.95109203980360    0.79173192244576
C         3.52865506179075    7.09304825595722    4.39127773322333
C         4.69709857671817    2.95001926595940    8.10997396416461
C         5.49693084356408    1.81059652018876    8.22336170109261
C         5.68886699544119    1.25032202181991    9.47797863815059
C         5.10044858122062    1.78907145979664   10.61132236248891
C         4.28823267977048    2.90536446892007   10.46819623269335
C         4.07087689142348    3.50029878369839    9.23389967757713
C         6.12019913830127    1.16619669591247    7.02069044560883
C         5.32502041981470    1.18594538415269   11.96465028200401
C         3.15389992967950    4.67192157806164    9.11446028561625
C         1.64671227010663   -0.56216298913792    6.35785546805425
C         2.05328048762707    0.36474672538723    8.91848278037445
C         0.60851237855755    4.87276268066869    6.40809639198623
C        -0.34966577103948    2.37536546508132    7.39583007453782
H         5.55083188619367    4.95396412132891    4.09543284072695
H         6.59875008173984    4.03917363749805    6.46572688388216
H         0.60124120593661    3.45737169261331    1.76678356653605
H         1.84210145000959    7.48649368542187    2.35549929791245
H         1.53001365734096    1.70131010670866    2.98473289739969
H         1.53123478263148    2.23471441867392    4.68985924090920
H         3.06800066883059    1.93918317544438    3.83850846892025
H        -0.65898961089967    5.35287810458844    0.76471648782732
H         0.76466494073590    5.82279084201171   -0.16070854526042
H        -0.02176960066075    6.99935568393576    0.89146640054210
H         3.01160808285163    8.04833522611570    4.34268606354099
H         4.51999365830386    7.22813748002510    3.95760593191106
H         3.64862701822542    6.81814759652153    5.43706101742477
H         6.30642268892747    0.36779830850759    9.56677255236243
H         3.80791325523617    3.32408612564293   11.34132382464387
H         5.46881637530968    1.25251456472717    6.15376041969360
H         7.07771516829256    1.62806903984033    6.77943015481546
H         6.29883201396152    0.11159982156158    7.21527391420382
H         4.38080430315696    1.06493592691196   12.49286420124061
H         5.95962688748491    1.83837229674591   12.56447524289087
H         5.80976305523436    0.21622707924616   11.88427832111991
H         2.90702624825332    5.07311952603902   10.09334736917884
H         3.59270981222768    5.46049928019729    8.50573127378575
H         2.22247797710235    4.34793396564151    8.61741527220686
H         0.57943941145351   -0.45795693934778    6.53028441488340
H         2.00058118488321   -1.52384808767405    6.72092495958450
H         1.86105516436189   -0.46258863254902    5.29877352949841
H         2.49406130082352    1.12058284537288    9.56095796458809
H         2.43607135765364   -0.61859348643995    9.18272141127459
H         0.97068678677089    0.39292191163767    8.99500629194868
H         1.34877872535698    5.67521802157591    6.33040071207025
H         0.06840518761050    4.81972654163468    5.45619940109306
H        -0.10710455079640    5.15181558623429    7.18472933135332
H        -1.22509688190249    2.92504965483099    7.03614156316783
H        -0.52537731412359    1.32789938716873    7.10239776024983
H        -0.41230788761901    2.40223668179996    8.49555169763402

