77
CSD_code = PAFCAA | q = 1 | S = 0 | Stoichiometry = C39H33IrNOP2(1+) | MND = 4
Ir        3.25820453007814    6.98828514362486   -4.93797800935964
P         3.56747380202561    6.73752346683373   -2.62546248164459
P         2.90922701327452    7.23558257537217   -7.24569976761733
N         3.21276531193008    5.10118641719707   -5.13660529663887
C         3.17739793051966    3.95687126927300   -5.26308689776411
C         3.13446091159761    2.54080665796191   -5.41155253690439
C         3.30012259722485    8.82850307669495   -4.74382494183818
O         3.32198536889926    9.97211759025421   -4.62160464764393
C         5.16356843157805    7.23857557111182   -1.91607105352375
C         5.59001815901458    6.76468412214896   -0.67732897893786
C         6.79497777490807    7.19563507103983   -0.15316838640148
C         7.58011937772329    8.09507380292898   -0.85752364754168
C         7.16341523917634    8.56154753867667   -2.09379745144490
C         5.95964270132161    8.13336646464076   -2.62362103839600
C         3.37575983836498    5.04255151623894   -1.98918721588692
C         4.40623050089146    4.13826014611506   -2.24101310175765
C         4.28685934931624    2.82072448020420   -1.84215999237913
C         3.13293830394983    2.39285413444284   -1.20150318709289
C         2.10176466681158    3.28581030047259   -0.96153366753873
C         2.21680432872478    4.60767733259181   -1.35776019349235
C         2.32601484185570    7.68812403985051   -1.69391442122574
C         1.09141829931720    7.87625921143764   -2.31209544029764
C         0.08769055505658    8.57248744285780   -1.66668275929513
C         0.31464695670499    9.09291480120701   -0.40180161386571
C         1.54399656992044    8.91659646614219    0.21189511106213
C         2.55151382511808    8.21564443905560   -0.42846508077089
C         3.06870418390097    5.72014182479075   -8.24204374322630
C         2.04592862512952    4.77651852701881   -8.15929380694122
C         2.14814174468794    3.57981129988324   -8.84216200990726
C         3.27682919508887    3.30978482224612   -9.60189000303177
C         4.30053347758798    4.23963472240580   -9.67657614749272
C         4.20298410836153    5.44101857207567   -8.99500718293666
C         4.11944725937915    8.36736261683168   -7.99810158442688
C         3.85522648094558    9.12671567710766   -9.13146145415352
C         4.83881712549306    9.95196643228803   -9.64862697507765
C         6.08289152001981   10.02231513440553   -9.04318014341097
C         6.34874978657824    9.26907336543735   -7.91005765963060
C         5.36885596112322    8.44733582960480   -7.38690740485012
C         1.29232865560179    7.88098703015711   -7.76753374460546
C         0.80154578787253    7.67215976245933   -9.05434818493315
C        -0.41566005651680    8.21533698628792   -9.42335377329348
C        -1.14929672544318    8.96400827850710   -8.51638237131487
C        -0.66862282269006    9.16606727413654   -7.23269047402495
C         0.54764165501321    8.62491307215383   -6.85780075627596
H         3.84797218140432    2.23018901363683   -6.17581419439460
H         2.13330041141287    2.23461946943685   -5.71653718247817
H         3.38360805513300    2.06342061272455   -4.46240685634484
H         4.98393736815747    6.05422543121652   -0.13135609736170
H         7.12265705215276    6.82863856476882    0.80773220583804
H         8.51923335473159    8.42835075450737   -0.44349856605918
H         7.77728808410889    9.25783438529179   -2.64455226164468
H         5.62695689885660    8.48648244014438   -3.59199526967333
H         5.30494190188282    4.48200917243954   -2.73753728852200
H         5.09477003598568    2.12688511815938   -2.02407344178178
H         3.04086363499877    1.36446631604579   -0.88689177846723
H         1.20541530375400    2.95308374217021   -0.46056909113641
H         1.41289098374356    5.30425399447948   -1.16645890130751
H         0.93254536557117    7.46814842568020   -3.30614955672288
H        -0.86841977505118    8.71460629295524   -2.14753752365186
H        -0.46555486170645    9.64167377184531    0.10278653697248
H         1.72110558757497    9.32915354470101    1.19342850668780
H         3.51128279674333    8.08948125519237    0.05082217160908
H         1.16503947215672    4.99899516287381   -7.57003637276148
H         1.34679103698404    2.85748871518245   -8.78914982703114
H         3.35486728998091    2.37632617081271  -10.13805781153427
H         5.17728840607742    4.03111403686965  -10.27072748494247
H         5.00123249087986    6.16695745085020   -9.05684407442336
H         2.88399130447682    9.08197991975202   -9.60215142539480
H         4.63173535215105   10.54433558182872  -10.52680002660024
H         6.84444022855865   10.66902618878802   -9.45091914093079
H         7.31661986649359    9.32757268094226   -7.43545561679048
H         5.55806792822956    7.85560721797337   -6.49608219510137
H         1.36713895934346    7.07908218797471   -9.76034758002912
H        -0.79285573741750    8.05453087014980  -10.42198073453620
H        -2.09784300352302    9.38632201556320   -8.81019933031077
H        -1.24199713215108    9.74491157991325   -6.52472232142465
H         0.93102601074425    8.77271360868637   -5.85545335202900

