40
CSD_code = PAFCIJ | q = 0 | S = 0 | Stoichiometry = C19H17N3Pt | MND = 4
Pt       -2.13301300631916    3.01782035372388    5.38362970315139
N        -2.17987640412389    3.78980511832449    3.37500366287632
N         1.33698388539054    3.25573084794069    3.11318698909385
N        -4.03618149731693    3.21892034738379    5.69000912717330
C        -3.20480743475115    4.24300066163198    2.66639053851416
C        -3.07620723175621    4.70689161835485    1.36909687007413
C        -1.81718163963303    4.69734740540334    0.78136835361272
C        -0.74702263044946    4.22737078294458    1.51519679843572
C        -0.95956728473050    3.77813920555745    2.81816264255853
C         0.12309998680890    3.26144380332748    3.65577874745343
C        -0.19800451640946    2.81071585863587    4.95795305909994
C         0.90252363258020    2.32896379795833    5.67776732034465
C         2.16873395323961    2.30981075078564    5.12190384959228
C         2.35504504239615    2.78296188973872    3.81961511196320
C         3.66981314319378    2.80848989000521    3.16331180921950
C         3.91999378015111    3.76098180789551    2.17662935967272
C         5.14486772970309    3.81275672339621    1.54099810725234
C         6.14081373239214    2.91000063226984    1.87706545122153
C         5.89949356015315    1.95303332405286    2.84845082670952
C         4.67460252474768    1.90038900383788    3.48794718292461
C        -5.13498656139852    3.12122685468726    6.02266617815553
C        -6.50749941355611    3.01799911651990    6.42540764234595
C        -1.91635468178109    2.27378810152311    7.27431175596758
H        -4.17234405078730    4.23638819446919    3.15310590848211
H        -3.94114411920044    5.06451701744820    0.83261012458055
H        -1.68175619685058    5.05032178369792   -0.23038900527536
H         0.25509320225551    4.18829158160647    1.12056866172236
H         0.77476761248309    1.96601032853222    6.68785924664193
H         3.01146387791536    1.95576882233011    5.69719801748401
H         3.13628204875404    4.45910974531199    1.92561869184434
H         5.32719713903714    4.55921671140920    0.78096215125117
H         7.10005731667702    2.94880135477658    1.38145925460506
H         6.67026579968996    1.24081857346277    3.10677164981394
H         4.49310540995425    1.13518356665229    4.22828653782784
H        -7.04785443135863    3.92278532306957    6.14568447531172
H        -6.56370442584901    2.88732197184622    7.50622633924809
H        -6.96930518776241    2.15929971811718    5.93766921732058
H        -2.85478408490007    2.24468388814034    7.83852452409740
H        -1.52061207172603    1.25310311348594    7.24876865863584
H        -1.21049650686238    2.88329040974577    7.84852445899334

