52
CSD_code = PAFFEI | q = 0 | S = 0 | Stoichiometry = C20H24NO6V | MND = 5
V         3.98797947443306    5.50127741242795   12.47108841404914
O         3.52284338291921    4.54543658680630   11.20568537882900
O         5.46108828717155    5.12995970776364   13.17054820711748
O         7.97847617127367    7.74384231363465    8.77942500124237
O         7.46794719433240    5.71678896231741    7.98387841276037
O         2.87492600362645    5.29069919808353   13.64027621632384
O         4.05314125973394    6.94070563697355   11.97737767075003
N         5.99440293932296    5.31798105423446   10.50369475085439
C         9.17393930550351    6.18664156014981   11.18174999386919
H         8.76047435564238    6.96843999309973   11.79964864326041
C        10.44883666354560    6.34072491125963   10.66371188036908
H        11.00901501225272    7.23771799435045   10.88379071855830
C        11.00200020179938    5.35657137146219    9.86313802377369
H        11.99470636818880    5.48150601890118    9.45578278305514
C        10.27438125556967    4.21139079463376    9.58746386331930
H        10.69574055504357    3.43904167794370    8.96163344505127
C         9.00486002440323    4.05531386177277   10.11183982483279
H         8.44228105671693    3.16102297971047    9.88734725063881
C         8.43456532782669    5.04092916849022   10.91186482201137
C         7.02179518889956    4.83613667698252   11.41567291910890
H         6.85332953459970    3.75821652711192   11.54160530331499
C         3.06283664004050    3.39546002629341    9.14330998928084
C         2.70844385210274    2.24750810034372    9.83916019215983
H         2.91014973078461    2.19646776800666   10.90091825254296
C         2.09333708822081    1.19492487968410    9.18497819053538
H         1.81570219960737    0.30764632400614    9.73508072757779
C         1.83584023442094    1.27743386583777    7.82721334677619
H         1.35663633061668    0.45585684549349    7.31556508790690
C         2.19165613923054    2.41824872632632    7.12715343859108
H         1.99003609746489    2.48675036063540    6.06831126191813
C         2.80133001992877    3.47387023332417    7.78137486609002
H         3.07341230347975    4.36590086942888    7.23585871677193
C         3.76858823069889    4.52621783431386    9.85884628474100
H         3.45534372517786    5.49859151946073    9.43162265096391
C         6.74195498370074    5.45538416147657   12.81149797980859
H         7.46530425529656    5.05647095860692   13.54279410303114
H         6.82826232295046    6.55335485451056   12.77186920794294
C         5.31204794160962    4.36880941374843    9.65871166475268
H         5.56848743536998    3.34961051175844    9.96106680021418
H         5.56075936987351    4.49406941649110    8.60023094636908
C         6.24210298789880    6.60671935566911    9.89381241999684
H         6.53922888956816    7.32989315342431   10.65431667234304
H         5.30206890043820    6.96658337582553    9.46163667868657
C         7.29044276598831    6.59868479642410    8.78419971186109
C         1.90406939742876    5.78690521470809   14.46618326822147
H         0.95002895622387    5.26967989239999   14.28334555222138
H         1.76893466745473    6.86475947253476   14.28332566988751
H         2.18902248003203    5.63553650706109   15.51816752177694
C         8.97069344976654    7.87969653757067    7.76935942744355
H         9.35528963643013    8.89223509603056    7.85526952845386
H         8.53235183378908    7.71516649942839    6.78336668267833
H         9.76680757160363    7.15011902106481    7.92962963536711

