42
CSD_code = PAFHOT | q = 1 | S = 0 | Stoichiometry = C10H20CdClO5S5(1+) | MND = 7
Cd       -2.87059911028202   -2.04127336812922   -0.17231606502262
S        -3.78999237004796   -1.92361010709210    2.47839057613932
C        -5.19446370615318   -0.72105909605326    2.44036380029734
C        -5.82526392448446   -0.66556152513289    1.06379359875374
S        -4.67790823854193    0.14860008135235   -0.10461157279776
C        -5.59662604784026    0.02747214956647   -1.67491918983115
C        -5.48542391949405   -1.29982241930650   -2.40408643643134
S        -3.79856366818126   -1.93467039130156   -2.71891532638561
C        -2.95556326931439   -0.54886783288296   -3.58289636497085
C        -2.24847899769088    0.44766290587367   -2.67689725597477
S        -1.06257858105615   -0.39869745432518   -1.55737097137939
C        -0.90598806812112    0.94360365728893   -0.30073848760676
C         0.09486119449851    0.57286547819881    0.77288876078551
S        -0.39454696466967   -0.83445172667302    1.88992691239881
C        -1.77905450393548    0.03489777841584    2.77698151593300
C        -2.60367124496998   -0.99393914195654    3.53047073857190
O        -1.06594156828661   -1.82657777152881    1.01822334927608
Cl       -3.66142054029449   -4.50427451099602   -0.02660737490375
O        -4.64419560397082   -3.41928873761613   -0.13881652707895
O        -3.21024218782989   -4.51797247553430    1.30429039043275
O        -2.57201734435919   -4.09039427069498   -0.87825918525896
O        -4.22188447068854   -5.69732867763325   -0.45316510062458
H        -5.93129254819101   -1.07492493516696    3.16218919564721
H        -4.83131129940220    0.26081503435992    2.74349915114727
H        -6.73594228263803   -0.06383659283022    1.08700219987876
H        -6.03119332067375   -1.67032040147174    0.69101724823051
H        -6.64234974218976    0.22879717164194   -1.43716058894401
H        -5.22369001112477    0.84714957304913   -2.28999382649075
H        -5.99408768833732   -1.21923791931568   -3.36590776006551
H        -5.93568775130171   -2.11043104552909   -1.82734059210424
H        -2.22624446468062   -1.04740077067175   -4.22266151590935
H        -3.68618649939789   -0.04379952195652   -4.21357576282517
H        -2.94873594994485    0.99942367949806   -2.04872210258654
H        -1.67977674759260    1.14920233090520   -3.28964904762585
H        -0.54947453372561    1.82647957136645   -0.83482513248589
H        -1.89778093410284    1.15263592476628    0.10489166134598
H         0.29990978415415    1.42244542896858    1.42207810524696
H         1.02951300731106    0.25187124875764    0.31144818613116
H        -1.30154662073020    0.72386713439955    3.47257945285631
H        -2.39696440769635    0.59301458572184    2.07285457297383
H        -3.17821790660215   -0.53659632335249    4.33551687041901
H        -1.96217694742164   -1.76596671697995    3.95762990083531

