70
CSD_code = PAFLUD | q = 0 | S = 0 | Stoichiometry = C30H35BrNPPdS | MND = 4
Pd        5.57899194017043    8.70563052070584    4.74688545269308
Br        3.86883724341820    9.86842650037167    6.09226683102920
P         6.99269440608457   10.35968282523430    5.20498190683821
S         7.27601011645263    8.06950308357794    7.17674023200875
N         4.30384859167867    7.13955250311110    4.23936117851339
C         3.59482961096784    7.61100088776367    3.04665647678940
C         3.30987769428031    6.73293987432738    5.23502983311351
C         5.79702077787654    5.36177080085753    5.13880246794537
C         5.18883945910050    6.00756446529809    3.88864712479074
C         6.32307287102998    6.54691787158852    3.04737829741237
C         6.95609558180377    5.76876166840666    2.04423092731565
C         6.59828795842295    4.43584295861793    1.73939818035477
C         7.24866761918761    3.73433116833804    0.76321703852330
C         8.29373724670489    4.32124401260517    0.03517259397936
C         8.66890030137785    5.60615766465079    0.30438584439138
C         8.02008023909338    6.35612886770975    1.30660180447869
C         8.40615058411794    7.67847424051372    1.59854544391018
C         7.79119769379366    8.38801514540589    2.59193146970897
C         6.74377771151581    7.82881893535200    3.35038319393656
C         6.64684455454837   11.56510657146685    6.53876174923251
C         7.12746289368097   11.49806878648234    3.79247277629153
C         8.14829554027992   12.42532145412622    3.62797963757133
C         8.13673518876037   13.27173715305880    2.53352243871421
C         7.10578608620419   13.20293744791721    1.61020906203096
C         6.08020336173588   12.28557579101966    1.77586937512420
C         6.09261856530206   11.43365228661537    2.86410584024568
C         8.72673953250344    9.83024860863309    5.62476657092004
C         8.68165533948632    8.37420893962582    6.06418772496062
C         7.95778343727596    8.71474955648538    8.76183752690880
C         9.20078842993370    7.98608462616352    9.14247827369571
C        10.43406511396437    8.62635878835141    9.12697390742518
C        11.58930763489122    7.93434233350794    9.44820382401629
C        11.52427188602934    6.59263053602564    9.77995147634197
C        10.29882684162127    5.94527390704211    9.79293723218944
C         9.14553063022833    6.63644746779885    9.47496888497775
H         2.88053867914739    6.85367656007469    2.69237796339244
H         3.03971681888793    8.52377453680677    3.28787122104861
H         4.30089011734925    7.82155565797775    2.23811290899635
H         2.82599230233060    5.79378447163776    4.93581693960655
H         3.77652538848500    6.61019820183630    6.21345832333030
H         2.54391240442371    7.50269507412646    5.32740021103519
H         6.62056215714343    4.71554494127928    4.84136811208239
H         6.19221454578994    6.14271571681120    5.79764599096888
H         5.07309019015340    4.76293233402684    5.68629210189907
H         4.59070053402366    5.25858697117451    3.34413000619188
H         5.80477394877441    3.95265345463137    2.28941250245776
H         6.96004625624671    2.71540940331216    0.54772691423206
H         8.79617252321345    3.75032570377463   -0.73203336477096
H         9.47521970556641    6.07208925490994   -0.24504800833791
H         9.20654198280726    8.12457029540736    1.02320543704459
H         8.11866229806950    9.40357773144554    2.78699906542248
H         7.49501950306107   12.24167605878406    6.65466050052421
H         5.75677963547557   12.13302901876671    6.26825877050973
H         6.43969899894331   11.04126669852151    7.47164619702837
H         8.95276026535536   12.48054511515595    4.34894309743684
H         8.93379358899498   13.98876216979007    2.39985873580843
H         7.10305177579476   13.86670411894801    0.75828936511669
H         5.27736711224337   12.23529598153583    1.05530792073538
H         5.29788041777688   10.69355397121352    3.00791866795515
H         9.11255387301310   10.46126051193174    6.43049677287978
H         9.38107334505178    9.93855508753215    4.75651917131489
H         8.50105934331015    7.72171509021964    5.20641060017964
H         9.59218849844263    8.06008675815893    6.57675518768397
H         7.15319287544747    8.54878661772646    9.47712891724049
H         8.13127308511306    9.78451428881927    8.65079967453483
H        10.49125747587694    9.67595295171302    8.87150922253085
H        12.54137139438900    8.44458913412203    9.43563319207352
H        12.42576306995247    6.05187984724372   10.02658851464955
H        10.24407313900228    4.89792999205897   10.05041757859822
H         8.18925006678009    6.13439802976021    9.47297899023750

