104
CSD_code = PAFSOH | q = 0 | S = 0 | Stoichiometry = C40H56ClN4P2Y | MND = 5
Y         1.68261360558218    2.53134873139267    3.84967324801787
Cl        1.31072650524808    4.20434227725522    5.65542792240408
P        -0.21120246083002    0.41775629492442    4.65647968526918
P         3.77793484753197    3.49989761030194    2.02558823998197
C        -0.27584702474611   -1.39248999079564    4.36521500582542
C         0.42132796615326   -1.81495765495424    3.23923345735430
H         0.84770236198040   -1.05858667246166    2.59097061711283
C         0.56112533633052   -3.16068804220386    2.96011141805387
H         1.10034508686458   -3.48042414367862    2.07975077838051
C         0.00917146686586   -4.10044132130804    3.81651952059870
H         0.11097900952200   -5.15424264923653    3.60257245207682
C        -0.66108373456819   -3.68767900518279    4.95610208229907
H        -1.07440207683960   -4.42068823937008    5.63416169327171
C        -0.79618703370789   -2.33895789157798    5.23835728930942
H        -1.29447128561020   -2.02793321083616    6.14595088748039
C        -1.72824420146456    0.88196668434439    5.58723436461528
C        -2.89839162808226    0.14044747531510    5.68033718693682
H        -2.96613477832834   -0.83906086872387    5.22776078272288
C        -3.99418062149319    0.66234955377548    6.34768160349554
H        -4.90119152605762    0.07928418191509    6.42178266010446
C        -3.93369772169256    1.92485430783144    6.91287437931908
H        -4.79202479225783    2.32395596517594    7.43315085745326
C        -2.77536312565730    2.67860709560831    6.80025536225113
H        -2.72645208321046    3.66985521991144    7.22586062653700
C        -1.67996278575274    2.16037829585059    6.13643770856549
H        -0.77115464437004    2.74344828176717    6.03005588870963
C         1.70018272897934    0.36560204357911    6.64484520185337
C         2.85323304580381    1.31938223303948    7.00102479974705
H         2.47458285740136    2.33511739224578    7.12171681681489
H         3.60896185461512    1.30803712820392    6.20986257218320
H         3.32350058326026    1.01334831518160    7.93353569744584
C         2.24349890929092   -1.06987738833360    6.57651648453647
H         1.43835928002537   -1.77093217576576    6.37308468010438
H         2.70429325246276   -1.33706635891281    7.52535139345965
H         2.98674970116036   -1.16368466053073    5.78984153103335
C         0.64249900523781    0.43836757018504    7.74912731700048
H         0.27095050097471    1.45508731006685    7.85059386670956
H         1.06936224440327    0.12487141563605    8.69974229172796
H        -0.19267617262685   -0.21672158987522    7.50658111447106
C        -1.18052870842683    1.48915552362927    2.31493605806856
C        -2.07711537315274    0.26554743823629    2.11405282925340
H        -1.50072536498405   -0.57366573611965    1.73132458295979
H        -2.87202798152646    0.49672654378832    1.40747973878046
H        -2.52448988507643   -0.02342999204774    3.06200995407181
C        -2.03787400760698    2.68533994835946    2.76132228501246
H        -1.38841191829828    3.49655223889045    3.10318676832176
H        -2.69030487028126    2.39923897801349    3.58331578747065
H        -2.65369787696010    3.04658461126506    1.93992415017056
C        -0.49354125281526    1.83753137986068    0.98410611239823
H         0.15110650100858    2.71028750623239    1.12369032779332
H        -1.23213739961360    2.05913932012110    0.21622595039101
H         0.11852612947505    1.00134785146646    0.64830605303381
C         4.18962238706483    3.48407302307077    0.23723714423912
C         3.09130444077299    3.19259197773324   -0.56526768178500
H         2.13436876709476    3.04449366405113   -0.08047788554807
C         3.22625702272950    3.08584215273095   -1.93538666206401
H         2.36724599932938    2.85970265146992   -2.55069753902828
C         4.47154709276429    3.26685421765692   -2.51785677583624
H         4.58520337399466    3.18891992094919   -3.58904165517834
C         5.57222927059022    3.53722985838595   -1.72308187659099
H         6.54553107227150    3.66479391836378   -2.17486704154891
C         5.43790804473633    3.64086119623345   -0.34803745866503
H         6.31116111059436    3.83142863770578    0.25899934116101
C         5.13140380639450    4.35642840151548    2.93377079547582
C         5.98895770098656    5.33891133502362    2.45584772489433
H         5.95456090555872    5.63945541996245    1.41847392766759
C         6.87604352498409    5.96206670254099    3.31779089726040
H         7.54439902919726    6.72168660781336    2.93820419051764
C         6.90048163995381    5.62769131555277    4.66102679624786
H         7.59229777634754    6.12083303058988    5.32759652967132
C         6.02218700992468    4.67390669319364    5.15245348924437
H         6.01934463569451    4.42836081231367    6.20435156534099
C         5.14301316697678    4.04642008476547    4.29169312598932
H         4.43241784558167    3.30515317028459    4.66482399735190
C         2.03819276252272    5.61316309145881    2.19996249336348
C         2.65877064055051    6.46285224377558    3.31719784448031
H         3.73844974538806    6.51963804042492    3.20445043129599
H         2.43151252628437    6.03379584008745    4.29082172702164
H         2.25492651789193    7.47261433332926    3.28243168179314
C         0.50865597640089    5.71731993935382    2.30351413430286
H         0.03250244620828    5.13946405634388    1.51160268045818
H         0.19352832604517    6.75426796914826    2.21168735381986
H         0.18114143834206    5.34245149593176    3.27702009444054
C         2.49399317848642    6.16377784649418    0.84641773153569
H         3.57493295850304    6.06901359710176    0.75650722812583
H         2.22622829088494    7.21486613371053    0.76083787747018
H         2.02981728914624    5.61553140446782    0.02936578909182
C         4.34020165032839    0.82681675483927    2.29918512570216
C         3.81906398244736    0.16240526237857    1.01693335313402
H         4.00782989425187    0.79812800568554    0.15528484070671
H         2.74484139769629    0.00434330359230    1.10098858852703
H         4.30640440764872   -0.79709230574457    0.85692232260656
C         5.83186208209762    1.13761321104296    2.15696344804478
H         5.99704231107750    1.79056239444451    1.30442853396215
H         6.39555724758485    0.21863660939949    2.00646396465951
H         6.20048641339595    1.63184649171259    3.05444487985732
C         4.14916449385518   -0.14988402562504    3.46808659655160
H         3.08338562211358   -0.31320310932332    3.64305371241876
H         4.60414679774702    0.25682582343678    4.37153770383647
H         4.62005132035176   -1.10622789214506    3.24794986422938
N         1.18217530839051    0.80749639285110    5.35065324251873
N        -0.11079938007229    1.25027907828489    3.27980449208905
N         2.36403499957040    4.19141605545187    2.34137159105066
N         3.54830328717773    2.01694803475426    2.60030564112535

