109
CSD_code = PAFVAU | q = 0 | S = 0 | Stoichiometry = C46H54N4O4Pd | MND = 4
Pd        0.00003600227423   -0.00005984319582    0.00030269678441
O        -1.24968405525399   -1.35181711915141    0.94191547043979
O         0.68472508709875   -2.12232611601930    1.66214870184929
N        -0.49646110741887    0.99467782188591    2.86379544425244
N         1.45829561422106    1.56277349007693    2.19779940464151
C        -0.54807892319409   -2.17921135373704    1.58427254478024
C        -1.30519986401304   -3.30769212812430    2.28040047400480
H        -1.35677368272237   -4.15817810092776    1.60592422445303
H        -2.31458748227811   -2.98155082176229    2.51234853292634
H        -0.77487195315730   -3.61166798886841    3.17795773728472
C         0.32694385053258    0.94998591448298    1.79134278661755
C         0.11630701974496    1.62151139969611    3.91980815402249
H        -0.37825035944693    1.77775511499730    4.85591693650860
C         1.34748210752366    1.98084952808380    3.49896488206569
H         2.14725518970626    2.48327396202456    4.00413226622198
C        -1.84090964956272    0.54622694946706    2.94954981852353
C        -2.18121667825771   -0.41647371220814    3.89874367986859
C        -3.51582200298874   -0.77433427673301    4.02616799921944
H        -3.78860818368939   -1.52033121851433    4.76001425705175
C        -4.50140851121116   -0.19516706771595    3.24251954248924
C        -4.13084102475517    0.75472818642347    2.30226681053006
H        -4.89123902706845    1.21741165661086    1.69002387359481
C        -2.81089044812769    1.14303579447086    2.14096043889290
C        -1.14227318151634   -1.05852008079434    4.77059484094306
H        -0.22272975567163   -1.22955708950354    4.21475754986643
H        -1.50598557301813   -2.01145548776262    5.14645607865081
H        -0.91137678456756   -0.42910018946564    5.63082890111631
C        -5.94555160151232   -0.54465140536429    3.44078701748799
H        -6.05275210840332   -1.52328083998650    3.90193266488672
H        -6.47879073867038   -0.53765357759426    2.49397681319109
H        -6.41623288827702    0.18918892607697    4.09626425343041
C        -2.43498651052649    2.20634814483046    1.15946454037968
H        -1.80612194926655    1.78252987761234    0.36170269408475
H        -1.87068422376728    3.00145204834695    1.65004118052919
H        -3.32052748540884    2.64119074265113    0.70470585894800
C         2.58563615984469    1.91737346925316    1.40741327266964
C         2.67088082919936    3.23212499900088    0.94838417302195
C         3.79160983480737    3.60496264175002    0.22737656719768
H         3.87283017372980    4.61908615199883   -0.13851226110801
C         4.81295972557407    2.70283387413270   -0.03852935927747
C         4.70049610529948    1.40606158186356    0.43528049228163
H         5.49341476211758    0.69845005788057    0.24037227230194
C         3.59605275642631    0.99211092972316    1.16682324616907
C         1.56128068426335    4.20420994045653    1.22143931020016
H         1.76300695703710    5.16063378740348    0.74522069110712
H         1.44039450624019    4.37413211824373    2.29186406701675
H         0.62061574337607    3.81065958435487    0.83472099169202
C         6.00786643692808    3.14315023942951   -0.82916701979629
H         6.83347591203754    2.44597524066371   -0.71248016167496
H         6.33607938756309    4.13121446796672   -0.51204106201601
H         5.75144582673444    3.19925170130922   -1.88638488705579
C         3.50103843179394   -0.38739818151897    1.73373588911201
H         3.64072966639844   -0.35771109984535    2.81585463326532
H         4.26438187992258   -1.03200486010829    1.30852890192767
H         2.51720586579125   -0.81993804704459    1.54130649598822
O         1.24933850557149    1.35141213167659   -0.94255573067725
C         0.54798997320200    2.17853318900707   -1.58557773396857
O        -0.68491210677016    2.12267731649119   -1.66244376156946
C         1.30526615447395    3.30768217903125   -2.28048593216940
H         1.35710802093763    4.15786366109879   -1.60560112016440
H         2.31454247818502    2.98143557169470   -2.51272299756426
H         0.77489533350477    3.61216141993321   -3.17782893269885
C        -0.32684838897772   -0.94999327688085   -1.79103542738927
N         0.49641254652324   -0.99456455057139   -2.86363588423289
C        -0.11639569391760   -1.62144367373683   -3.91961715613261
H         0.37807788651585   -1.77764343480932   -4.85578674164624
C        -1.34749741586107   -1.98086132292511   -3.49867980920209
N        -1.45821103614342   -1.56281661828467   -2.19748011082369
C        -2.58548246834149   -1.91753752260570   -1.40705142207512
C        -2.67066663344402   -3.23235257390014   -0.94820029254012
C        -3.79135461062777   -3.60532468341671   -0.22719349175971
H        -3.87249794495846   -4.61948961949917    0.13860110574153
C        -4.81273097138655   -2.70327354355705    0.03886282963720
C        -4.70034288475455   -1.40644340162571   -0.43481030306847
H        -5.49328424375636   -0.69888785964114   -0.23979246882015
C        -3.59594015752156   -0.99235909868912   -1.16633557583955
C        -3.50104156524113    0.38718906764388   -1.73316494067681
H        -3.64084234315598    0.35761487545511   -2.81527558334030
H        -4.26434629569154    1.03173774685774   -1.30780285365438
H        -2.51719201894186    0.81970377737198   -1.54078281954440
C        -6.00754336341016   -3.14368918005511    0.82958854586329
H        -6.83330735348794   -2.44673326762839    0.71274083275754
H        -6.33552456519043   -4.13189745331587    0.51269750321464
H        -5.75112963876036   -3.19947932658729    1.88681949420827
C        -1.56105615604231   -4.20437729680838   -1.22144589120079
H        -1.76276590395633   -5.16089264822402   -0.74540195801679
H        -1.44013829073471   -4.37410802170218   -2.29189813681579
H        -0.62041161713113   -3.81087125031017   -0.83463662106301
H        -2.14729304507210   -2.48331825241455   -4.00379700577065
C         1.84078880026938   -0.54596588156100   -2.94959111491719
C         2.18087724625734    0.41665678168207   -3.89895183641712
C         3.51543732193057    0.77459803273058   -4.02662536837335
H         3.78806376229847    1.52051543938270   -4.76061295379478
C         4.50117954332697    0.19560944496595   -3.24304092633607
C         4.13082195458677   -0.75420278708649   -2.30262292870410
H         4.89133434630484   -1.21672251983874   -1.69040232924459
C         2.81093163294115   -1.14261480476199   -2.14108643462360
C         2.43528808798301   -2.20592103933023   -1.15947457730683
H         1.80642288420293   -1.78218813136612   -0.36166187196297
H         1.87108553094839   -3.00117393128401   -1.64992269937694
H         3.32094986496357   -2.64057017468012   -0.70477670281506
C         5.94525278274197    0.54523328320137   -3.44153302562632
H         6.05228515508814    1.52393970507478   -3.90254601288364
H         6.47868093550952    0.53812103995824   -2.49483584115366
H         6.41584528019208   -0.18846520677408   -4.09722668345228
C         1.14178313625518    1.05849487347103   -4.77078409885086
H         0.22228675116153    1.22949497831984   -4.21486157983853
H         1.50536766715393    2.01143237837496   -5.14676253730418
H         0.91085236781791    0.42898572322352   -5.63094540957180

