28
CSD_code = PAFWIC | q = 0 | S = 0 | Stoichiometry = C6H12Cl2N2S5W | MND = 7
W         2.55249922154420    0.73437791272386   13.00500146547880
Cl        1.12759181416721   -1.05096276019535   12.97289724733150
Cl        4.37961576154128   -0.62463959968320   13.02040581639686
S         2.91902797477600    0.30644275342619   15.55379895668860
S         0.66456492091504    1.76770945599362   14.57195001384654
S         2.99189957012879    0.34795413155352   10.46031934514414
S         0.70419226342360    1.78465376540240   11.40206584427316
S         3.53511050146811    2.70225438908211   13.03181971696521
C         1.51754435971111    1.21290632710501   15.94169212679587
N         1.13218641655012    1.45295177976563   17.18444798761828
C         1.87730416335943    0.98715626307657   18.32785069091300
C        -0.04822654663293    2.22350605206741   17.48889974007907
C         1.59453831183566    1.24994132743833   10.04831571803683
N         1.23862836756757    1.50084231358188    8.79896485767456
C         2.00493428596545    1.03319897268082    7.67026533734358
C         0.07119799970362    2.28263853684780    8.47365044265823
H         2.77727761633077    0.47382933187601   17.99897756408921
H         1.26464007069642    0.29951679760728   18.91388854078972
H         2.15440617271037    1.83602506585971   18.95499102572074
H         0.23339843554859    3.14998340685195   17.99292211808493
H        -0.70083979003773    1.64710336745847   18.14624877501056
H        -0.57787397348940    2.46284935251084   16.57026283278553
H         1.34491769887802    0.51540627374527    6.97256757355063
H         2.78202882241540    0.35146563849858    8.00759320810777
H         2.46939671233588    1.87865874409494    7.15806347901146
H         0.35526603368753    3.10206547262983    7.81210137912628
H        -0.36574068468894    2.68635642630479    9.38355300866085
H        -0.66658650039633    1.65740850169412    7.96708518782804

