76
CSD_code = PAFXIE | q = 0 | S = 0 | Stoichiometry = C22H50NiP2Si | MND = 4
Ni        2.37100350897444    7.90910443792364    5.79037144238494
P         2.25033999329858   10.01648753735372    6.56887450987276
P         2.95821158092641    8.63399845899966    3.72603615903972
Si        1.09643592640278    5.58478258234335    6.60999236176245
C         1.82088688786267    7.06111927090831    7.53256332873073
H         2.72526892128716    6.79214728920555    8.08384023160825
H         1.16080576419955    7.64471009710621    8.16943961738646
C         2.11550254103127    6.91759349575293    1.61920228716918
H         1.30367794602853    6.62301601387319    0.95364221321149
H         2.23215246343674    6.13836943579672    2.36707720429466
H         3.02139685187353    6.97707990111476    1.02239463302706
C         2.43548848175153    5.95996885806367    5.33476294008485
H         2.26639398259966    5.69341589073859    4.29372113975109
H         3.40723081782820    5.57624931302474    5.65613762334698
C         3.02012671028335   11.04988461034774    5.21976076416282
H         2.67226751322121   12.08513204906833    5.27664243645198
H         4.09211980995364   11.04630637450089    5.41527556468938
C         0.59152531912152   10.90360608219656    6.87122223999260
C         1.77806535875032    8.25874533562532    2.27255179006208
C         1.08798934962646    3.86599493056661    7.44678820989938
H         0.76315855309792    3.09534780067415    6.75452375904170
H         0.41336797541328    3.84914443205877    8.29725136367218
H         2.07583947373731    3.59414989351875    7.80377300273054
C         4.74958131341724    8.43640710455511    3.11059925064249
C         0.40238427021584    8.12493441671528    2.93669592020176
H        -0.30143263271566    7.62723322682687    2.27091093489478
H        -0.01223290135333    9.10124215278850    3.17892306935105
H         0.48225515549351    7.53552211992856    3.85340112036662
C         4.65185604819600    9.51547839241809    7.74909245070991
H         5.22027244986194    9.36948775198135    8.66634126520394
H         5.32323601845404    9.95075363872763    7.01218675178537
H         4.32011916088598    8.53321539260865    7.39312873574384
C         3.44009548523396   10.42328402655747    8.00319425656250
C         2.76465051988551   10.48796316584827    3.82181693628683
H         3.41092790820603   10.98373784002021    3.09256271590036
H         1.73166498354881   10.69336115952582    3.54417418751522
C         3.92931669000775   11.86879475001559    8.11231873290149
H         4.72016098679106   11.90809410090610    8.86193080780443
H         3.14287221416107   12.54430453212985    8.43061767237090
H         4.34566925848936   12.23931735181862    7.17960665171926
C         5.11302887088662    6.95153595567478    3.16906443918777
H         6.18221660606011    6.82380415207324    3.00039647278973
H         4.58520896168343    6.36888311794750    2.42202852214855
H         4.86935643155859    6.55406509994962    4.15201521948446
C        -0.27417564451530   10.01043315851237    7.76187578835928
H        -1.26280224919380   10.45367511945356    7.88298573886318
H         0.15741720105524    9.87797842405499    8.74913694021807
H        -0.39186363939525    9.03129916822046    7.30152165071367
C         2.81802857804920   10.01359239376256    9.33849759430573
H         3.56609557894974   10.08658064281323   10.12823552093462
H         2.46980418473898    8.98574858857566    9.29595442583278
H         1.98988137661378   10.66203882796323    9.61197220383429
C         5.06133970523665    8.99893995193713    1.72685670453950
H         6.13852289822574    8.95628752562384    1.56284576327298
H         4.75585301728406   10.03926091574148    1.63382912333084
H         4.58848375379611    8.42093590677925    0.93836791378878
C         1.69970931964660    9.31948644732280    1.17211165809042
H         0.98804507889092    8.98258602553468    0.41799805401383
H         2.65519035424783    9.47099343729538    0.68122360961331
H         1.34719293258999   10.27826539132564    1.54232311520990
C         0.68176469037406   12.30461144002606    7.46885058570168
H        -0.30292059770174   12.77159685070751    7.43043241701937
H         1.36995993444807   12.93734727294862    6.91240871930246
H         0.98906327639510   12.27689648618776    8.51019472587721
C        -0.11173986637781   10.99238029232119    5.51552559579201
H        -1.15677987852234   11.26870799418515    5.65554150163255
H        -0.08465306204391   10.02076467401229    5.02640119125948
H         0.34395848371925   11.74081581726058    4.87089040042686
C        -0.69666997408005    5.89474834963129    6.01447324201879
H        -1.40256017947128    5.67485152160366    6.80865351027801
H        -0.94385788957753    5.25952650108317    5.17016206878262
H        -0.85027051473144    6.92546368792813    5.71183270443585
C         5.62746690799387    9.14986639154174    4.14070554166472
H         6.67364598695965    8.88392817742238    3.99058034483172
H         5.33958749133569    8.83515530727647    5.14186034331451
H         5.54701921536766   10.23146377117731    4.05790036680106

