77
CSD_code = PAFXAW | q = 1 | S = 0 | Stoichiometry = C22H51NiP2Si(1+) | MND = 4
Ni        6.03247952463317    3.90304860776813    8.55269596530097
P         4.40264905520079    2.99294054369555    9.71423200979785
P         5.40224015360331    6.03409117103029    8.93868911353847
Si        8.51255316186995    2.64632817648470    8.10829933808197
C         6.56386861830748    7.27442149067981    9.79240438498076
C         4.05882992621953    5.82755240565507   10.20857108018531
H         4.54099701180517    5.91774658407750   11.18154403061435
H         3.32833995404866    6.63588847832056   10.12478978418100
C         4.93677006398252    2.32588817632233   11.40902478791590
C         4.54722411694354    6.86403703671158    7.46107505459931
C         3.34331655058168    4.47825714223603   10.11196781685863
H         2.61061242630083    4.52521648669726    9.30722711555620
H         2.80304526049947    4.27958370216045   11.04082862376267
C         7.41265663460194    6.43570398330489   10.75594148989220
H         8.24830835848188    7.02602702937587   11.12681562341808
H         7.82253140360866    5.55927171026258   10.24873455909986
H         6.83513937402644    6.11293786668035   11.61885375016427
C         4.10294053537916    8.30697928946297    7.66890041310740
H         3.49981071628968    8.61514361605611    6.81579874698279
H         4.94385896450020    8.99050878520245    7.73447861221645
H         3.48839553609471    8.41131755076117    8.56072223100885
C         5.49955070180068    6.75203870506776    6.26656364346469
H         5.01007842768118    7.12276205217097    5.36767577477055
H         5.76347467924889    5.70636678706435    6.09419472111972
H         6.41149044444942    7.32391086931946    6.40616140533216
C         5.61558965363183    3.50279942290281   12.10957648085837
H         6.19194872753177    3.14772835758900   12.96141384584210
H         4.88961261220262    4.22203035594164   12.47892935016356
H         6.29952691029820    3.99104964067547   11.41437024298791
C         3.31932789426005    6.01017597282031    7.13976067048608
H         2.93035811902910    6.27748047764810    6.15877565304404
H         2.52163921827833    6.16477983736246    7.86209202633357
H         3.59996268678014    4.95724075801663    7.11575822971235
C         7.50996611060422    7.91010716132300    8.77177961093314
H         8.27527410952232    8.47942019858046    9.29741319093992
H         6.99162378431421    8.59985838007777    8.11232004332942
H         8.01556298577643    7.15569206730538    8.17288764963943
C         3.78431627484566    1.81563120859599   12.26812175601691
H         4.15503135260887    1.64483746932721   13.27774631574439
H         3.39612818101236    0.87011564855680   11.90172426738223
H         2.97058439674188    2.53347693012979   12.33687412112422
C         5.85893543315025    8.37622775135642   10.58177372913734
H         6.61573688416880    8.99092893664964   11.06697622062263
H         5.21563755334419    7.97835656851913   11.36170167760333
H         5.26971634235612    9.02516832170607    9.94367956927760
C         9.23383790892365    2.68394719157329    9.87618972676665
H        10.24803223642482    3.06956525085251    9.84439952555249
H         9.28526287708796    1.68474008260268   10.29655764112527
H         8.67032562969265    3.30624548066117   10.56552286608678
C         1.74881574754953    1.87816839051935    9.56031421619284
H         1.07843838106808    1.24175295654548    8.98480477692673
H         1.30989567915150    2.87071609800067    9.57898907643974
H         1.77724036354078    1.49034473709438   10.57193752581343
C         8.55251388472971    4.39704173478002    7.32872200582041
H         8.64325206933696    4.34502114432854    6.24763451802233
H         9.37962401667353    4.99367734052674    7.70084902309255
H         7.62110456155255    4.94208351315137    7.54733252648367
C         5.98326691086736    1.22631566566309   11.23791705499931
H         6.31195355565868    0.89007976963708   12.21960444431101
H         6.84620926139595    1.61287372530636   10.70390490030273
H         5.59501323503526    0.36357588523283   10.70765159163275
C         9.45917664547887    1.38008496593492    7.05451028610003
H        10.50898755775534    1.64814889809899    7.00741230102097
H         9.08557068603464    1.33195593658882    6.03692839987114
H         9.39512426498818    0.38363759118932    7.47833573003528
C         3.12282165197247    1.84705562100297    8.88790062156317
C         3.61183184053044    0.39903046556562    8.86565291382265
H         2.89615025113025   -0.20867071511146    8.31436765538416
H         3.68323198108535   -0.01609068421272    9.86622911745300
H         4.57145285092587    0.30920222072686    8.36646965892690
C         6.64076705688511    2.18018763559965    8.04533896274280
H         6.42271322047123    1.20798055097112    8.47431760569973
H         6.26705600558460    2.20319987972206    7.00781987548714
C         2.97372135932877    2.33285638022187    7.44226557478346
H         2.51544460510381    1.55563502238297    6.83491029762487
H         3.94668364590191    2.56920548332711    7.00781473994582
H         2.33453922751509    3.20965806986795    7.38173011284036

