53
CSD_code = PAFXIF | q = 1 | S = 0 | Stoichiometry = C20H30N2Rh(1+) | MND = 8
Rh        3.43067336911713    1.70133198729102    2.19522001947198
N         4.03121090829307   -0.16012989757901    1.06831723405668
H         3.93697042841148    0.17511719393792    0.10545971933094
N         3.90519333639721    0.83478173319365    4.01443940672968
C         2.48903464823002    3.60993585782019    1.59673459223422
C         3.36756979621156    3.78019785157172    2.72199767875892
C         2.97388437793924    4.42929427909200    4.00937803278041
H         3.02699677711899    5.51306068313204    3.89351349920129
H         3.63545895037694    4.14620029887794    4.82481488395360
H         1.95440820355049    4.16657100848997    4.28178484756231
C         4.74130839740331    3.62176425367210    2.24783193470435
C         5.96847459999583    4.03422158306007    2.99423683406490
H         6.80643574739912    3.36686580012691    2.80264596274677
H         5.79024080106971    4.07414459738480    4.06495647194109
H         6.25952614160334    5.03410666081667    2.66856386242203
C         4.68349509859987    3.18948382748508    0.92422719702871
C         5.83793800113632    3.03799332976756   -0.01206826277804
H         5.94927058441332    3.96003170631567   -0.58504065685204
H         5.68748650290589    2.22840868573854   -0.72405446162355
H         6.76813229467476    2.86772015889219    0.52525749294108
C         3.27610431125710    3.09811855669626    0.52927347367419
C         2.81350400765579    2.90930555768656   -0.88296933316559
H         1.81652297315128    2.47606245341589   -0.92362595784519
H         3.49151985951791    2.27293234978036   -1.44752840728812
H         2.77838347537153    3.87919243761941   -1.38145165506301
C         1.05731631306151    4.03128651967048    1.55020882448809
H         0.49887173397706    3.67145459029780    2.41158645176190
H         0.56926255971957    3.68291955960555    0.64511694418272
H         1.01946117062357    5.12148048899773    1.55711692251452
C         3.23285530030414   -1.38623280550923    1.16075300434883
H         3.62945026081797   -2.16010408963083    0.49567732403229
H         2.19947892839779   -1.18329697557796    0.89044024498344
H         3.25577901245020   -1.76274109231839    2.18242072076657
C         5.44823423954130   -0.47663246338307    1.28142621533120
H         5.57281457850043   -0.91548981880748    2.27073457008104
H         6.05584907501028    0.42458260922140    1.20729310490293
H         5.80692823277523   -1.20134298545338    0.54250026883879
C         1.68854409118154    0.80283871560580    2.65679982848479
C         0.53899937535865    0.74735211152774    1.88690177198067
H         0.49877766055851    1.21250147521325    0.91126700476206
C        -0.58888588251922    0.08759879616137    2.35943468614353
H        -1.48215078064493    0.06455909780868    1.75323715565048
C        -0.58208259774209   -0.53881694104430    3.59805016072581
H        -1.46819636333230   -1.04286576509763    3.95041315567727
C         0.56068195277163   -0.52287856778839    4.37035553377114
H         0.58811005866467   -1.01984987792485    5.32841028277857
C         1.69498491972786    0.14333751798847    3.90088378642392
C         2.95049235895436    0.19816359873436    4.58898214894343
H         3.08965247655545   -0.29273186048440    5.55059867144733
C         5.18574497398084    0.94848691765553    4.66347154415430
H         5.26302325814082    1.92299548100641    5.15170973181597
H         5.98873994374507    0.87720943102600    3.92941129786578
H         5.31911955757947    0.17410337815752    5.42408423414150

