102
CSD_code = PAFZUT | q = 0 | S = 0 | Stoichiometry = C39H55N2O4PPd | MND = 4
C         0.94306380293570    7.24345548152293    2.71151756338981
C         1.11816112167568    6.18552401467786    0.75896639372534
H         1.49465937560125    5.47187703513037    0.05584126732369
C         0.19429963162919    7.16426253810786    0.61905082554952
H        -0.38411994422847    7.45864713275383   -0.23281321252613
C         2.59790312215877    5.39089522838263    2.61050064451749
H         2.17967815007291    4.38864824679960    2.76987174154888
H         2.89010361360866    5.83175228303085    3.57468324251119
C         3.79150410366478    5.30836123091029    1.69425959224281
C         3.92984285736503    4.25586202193902    0.79906759971572
H         3.19257257924883    3.46425110153317    0.77856697670444
C         5.01285456652981    4.20924449640674   -0.06165905375213
H         5.11472716184297    3.38631454350226   -0.75405938087172
C         5.96289189725113    5.21568373388161   -0.03426856781332
H         6.80671942925539    5.17934250746071   -0.70742315491791
C         5.83123170310975    6.26483774991778    0.86057412644153
H         6.57503529799193    7.04731457906622    0.88775651465230
C         4.75139063961612    6.31135231897173    1.72386850387960
H         4.63887566714302    7.12297780153933    2.42783252065907
C        -0.72503257027644    8.95243191988687    2.09638439639202
H        -0.55246901090066    9.68905712910190    1.30445833106581
H        -0.35556813531773    9.41222837708430    3.03279422811031
C        -2.19657798031526    8.65065303042994    2.19852067360608
C        -2.72715938117289    7.38667306730644    1.98127897178600
H        -2.08060352930315    6.56278524506847    1.71307136754739
C        -4.09070043977472    7.16605004586199    2.09571815911291
H        -4.48965707328641    6.17750471122049    1.91640430283325
C        -4.93981801911471    8.20496451264154    2.42918426763699
H        -6.00152945303938    8.03053399181373    2.51960799988440
C        -4.41906977532710    9.47181957251121    2.64149352135900
H        -5.07737250007791   10.28859411262830    2.89781901795869
C        -3.06018609730205    9.69199440364668    2.52607644863333
H        -2.65113356397369   10.67593099776476    2.69773488503913
C        -1.27603179838248    6.01651379418994    5.12695890373148
H        -1.63803206497841    6.50351989356553    4.20933210318340
C        -0.46443843968757    4.79367466816443    4.70470528975652
H         0.43303567239663    5.12650125763437    4.17943030407638
H        -0.15855991160892    4.23106948240119    5.58814437883498
C        -1.29963671084578    3.87717494266281    3.81570409837082
H        -0.71015012703222    3.00835827918276    3.51334298742451
H        -1.59555062127603    4.41299043870275    2.91114308524040
C        -2.54546549655869    3.42348899620640    4.57006178336505
H        -3.16409208064523    2.79214340879724    3.92914121768395
H        -2.24608676996214    2.82728821769982    5.43537680237904
C        -3.34978980376280    4.63098923610759    5.03997366859194
H        -4.22291859456938    4.29639197277768    5.60425753656412
H        -3.70645144957777    5.18919734978213    4.17165130983723
C        -2.50580328305780    5.56289088084509    5.91215312092221
H        -3.12618085788401    6.41380916453402    6.19226791140912
H        -2.20886612088472    5.03866609636363    6.82118148219728
C        -1.34799105540296    8.39796016657178    6.77939529523248
H        -2.01918526480455    7.72241267474767    7.32505404809315
C        -2.14101365403583    9.19485949363006    5.74151651479768
H        -2.60285222686932    8.52024181670058    5.01641691245010
H        -1.44127073080338    9.84616428973955    5.21120578933707
C        -3.21704738560002   10.04784991385268    6.40459329535085
H        -3.75597974356098   10.61227093207966    5.64160833836045
H        -3.93880363432227    9.40329786581384    6.91539823905950
C        -2.57932748822400   10.99763317020923    7.41157099853143
H        -3.34482383940950   11.60826459513311    7.89543550967112
H        -1.89210262376813   11.66343550780785    6.88699527544298
C        -1.80647630613241   10.20148035723315    8.45693017587354
H        -2.49692952047384    9.55237167954628    9.00357213350323
H        -1.34539079703940   10.87968987536267    9.17798249097706
C        -0.72215989645629    9.35176340316749    7.79571858983577
H        -0.01393663380036   10.00830972012059    7.29339602314877
H        -0.18855952447566    8.79704830568124    8.57019265592596
C         0.91157165851858    6.60002557885304    7.21060290898542
H         1.25493450358028    7.50175654278439    7.73650207726798
C         2.17788242944412    5.92950600312567    6.66509664608370
H         1.92920520307876    5.00940342939312    6.13167478531968
H         2.68467870552696    6.62523849365199    5.97249858364872
C         3.11926805067283    5.59541624815338    7.82085008998817
H         3.43056144113510    6.52019305284192    8.31032832002973
H         4.01500519055202    5.10211742172093    7.43823336510342
C         2.42365240858248    4.69284513705959    8.83678687436004
H         3.09966571618313    4.47430680060615    9.66573850115952
H         2.16235113098754    3.74388913932434    8.36148641596264
C         1.15659463127476    5.35940948530023    9.36466838536072
H         0.65714492266855    4.70024882135203   10.07862480714765
H         1.42408930038936    6.27902415116112    9.88977883553449
C         0.20627601961289    5.69000979416091    8.21404355972561
H        -0.69054318762132    6.17405738944178    8.60628439258995
H        -0.09318209774548    4.75843447072050    7.73058592667798
C         1.64409419542531   10.43564514968105    5.65499711249275
C         2.30972143262173   11.64935786722747    6.29852615984330
H         3.15374002100602   11.94362781023950    5.67788548462060
H         2.67821713514841   11.39458897983425    7.28914815954670
H         1.60548838523423   12.47525477201834    6.34860872988706
C         3.17957326393697    9.46314859942669    2.73823429860032
C         4.42976344276351   10.10948672376325    2.14301083345896
H         5.26735754617475   10.00965847691841    2.82812899228835
H         4.23321097657517   11.15649578214977    1.93162387224576
H         4.66895403814021    9.60150354290325    1.20970625636097
N         0.09698882600583    7.79908401935125    1.82756593797512
N         1.57178536473235    6.25084163608564    2.05251992413226
O         3.37583952010134    8.50173332960625    3.53991334708245
O         2.05977176408898    9.84195618974259    2.39298474233360
O         2.12028495306856    9.30310536955502    5.96960679246790
O         0.66670326527223   10.58695496752478    4.91084449809921
P        -0.13595324486389    7.32760817730071    5.84704105935948
Pd        1.42095462393569    8.12831963747888    4.40248034109296

