36
CSD_code = PAGCEF | q = 0 | S = 0 | Stoichiometry = C14H13MoN3O5 | MND = 6
Mo        5.26746383881665    2.55863271952168   11.87768348847898
O         5.79572254782492    4.31715791496648   11.92504550811483
O         4.24349862919053    1.15467919255773   12.71350855640654
O         4.26607706798215    2.63107349945002   10.57199058356735
O         6.70462649508253    1.77544159942693   11.71075913434650
O         3.01811394324433    3.70822408713170   12.69294844626287
N         5.47411085506892    2.82953555419475   14.01830630701007
N         4.97964026136375    1.79883619172765   14.74989582648679
N         2.69987813211165   -2.60241720193815   15.61015723621377
C         6.60527362097432    5.07370515936525   12.63334186159490
C         7.24600340295021    6.17187487974286   12.04194356331800
C         8.07295447812820    6.98523507814180   12.78532842424455
C         8.28086421216029    6.73696162143586   14.14108013013451
C         7.66371798425432    5.66623989344356   14.74315302025668
C         6.82301756718052    4.81087309563784   14.01234186576051
C         6.20781463496951    3.68991763913158   14.64624298497773
C         4.36516533627283    0.94513440262452   13.98431905600637
C         3.79357579567635   -0.27900108701137   14.56732726213038
C         3.81741992579280   -0.52031841983861   15.94005717826943
C         3.25400118434357   -1.69922356390331   16.40137453091341
C         2.68174625456355   -2.37212520964585   14.30855018932463
C         3.21201133506895   -1.23017461641917   13.72948291899183
C         2.90883562462200    5.11626057915031   12.54817121680440
H         7.07566782032630    6.34863449254125   10.98932920254511
H         8.56258831041038    7.82363071129494   12.31341297213034
H         8.92839560920231    7.38252586298450   14.71340199924804
H         7.82490024881954    5.46206620198194   15.79151548944009
H         6.38106402938299    3.53315606250291   15.71148554208347
H         4.26361621794916    0.19965975040891   16.60530173358509
H         3.24248603949419   -1.93729933710366   17.45684306451723
H         2.22112355278837   -3.14288039967870   13.70494446518662
H         3.19022892182378   -1.06413228548280   12.66212875176127
H         1.85848809535917    5.40193826230964   12.43370690417918
H         3.30346926112964    5.56813619741932   13.45876939405035
H         3.48076261297542    5.47349146738132   11.68601896473795
H         2.73297615269558    3.30815000453350   11.85443222691841

