114
CSD_code = PAGFIO | q = 0 | S = 0 | Stoichiometry = C52H57ClN2PRh | MND = 4
Rh        2.26986539038738    7.96506731244502    4.73863596739583
Cl        0.99330606763662    8.26218841966506    6.66245992056448
C         3.17061656364722    7.50075982619961    3.13984342651359
C         2.49705126781321    7.01643589997555    1.97125952073565
C         1.10364408984386    6.82929842156328    1.97746637958329
H         0.56276714347133    7.08483894599696    2.88290980684450
C         0.44798643025094    6.30726558094430    0.88621962732441
H        -0.62076971387874    6.14882104226189    0.92153732808576
C         1.15537644423736    5.98593716695009   -0.26434790559975
H         0.64005878719542    5.58619007612734   -1.12566419288625
C         2.52878258693409    6.17288004503656   -0.30048392800581
H         3.08270582136801    5.91567958351815   -1.19280743217267
C         3.19354509940383    6.66619838420616    0.80224523709006
H         4.26904858113062    6.77967200619026    0.77185360214318
C         2.35208021883696    9.99054776471636    4.57930159977764
C         2.13706138199147   12.10270086930132    3.86434473097483
H         1.86487660486603   12.88764324645829    3.18872884582035
C         2.71139775085298   12.14165368510240    5.08643439204237
H         3.04959117936517   12.96938534965710    5.67416389450454
C         1.35239157964786   10.33787065939990    2.34510515282791
C         0.03991778629114    9.84792065000353    2.32591908407826
C        -0.76219897338489    9.75413642795752    3.60516337591077
H        -0.10153794872761    9.35949368372897    4.39093586516530
C        -1.96475281715504    8.81629618696534    3.51129972266481
H        -2.36771548751947    8.65811396049085    4.50928445505204
H        -1.67987499527844    7.85034116501840    3.10224762096883
H        -2.75386899970928    9.24395292263345    2.89509652672702
C        -1.24450181337847   11.14533838422848    4.03203840380337
H        -1.79280943421919   11.07150378440928    4.96820608057931
H        -1.90488433351549   11.56391401815005    3.27360799588798
H        -0.41527408029866   11.83268313661362    4.17916825522776
C        -0.49364843528168    9.48134765172552    1.09878577829143
H        -1.50575020161010    9.11694045352652    1.04022470425526
C         0.25481464846002    9.57037597594033   -0.06002077100446
H        -0.17628437224727    9.26744872804059   -1.00269667859088
C         1.54809018683788   10.04747900682407   -0.01825815479486
H         2.12015818378374   10.11284818523826   -0.93076785946906
C         2.11628644077611   10.45496876822598    1.18197412486762
C         3.51496270169619   11.03082641525784    1.19082332408150
H         3.79442515275087   11.29657434695057    2.21460197381867
C         4.53786092725624   10.00865393472642    0.69557271622428
H         5.53391081689286   10.44749686119127    0.69917761516539
H         4.30906867412173    9.67797217944942   -0.31452482104760
H         4.53555850865183    9.14245608823956    1.35130998914472
C         3.56902577879475   12.30590128678586    0.34380440033919
H         4.55552256586456   12.75953137799541    0.41268722038264
H         2.83249249038930   13.02908169304273    0.68836704025750
H         3.36538123992394   12.08622387147101   -0.70091358697987
C         3.35671602102266   10.47978382102391    6.78189454380511
C         2.63248918766890   10.81199824702414    7.93347110482240
C         1.33315089448909   11.58227075371944    7.88083139516370
H         0.98677643442070   11.63445290091424    6.84515919678841
C         1.55880848092242   13.00836032154033    8.39536123464559
H         0.64138294992805   13.58629449835881    8.30715596968133
H         2.34020799878527   13.51595936371831    7.83270078504621
H         1.85530950544775   12.99195916045978    9.44162208769785
C         0.22821314060433   10.89858542781075    8.68661738231209
H        -0.71210444396268   11.42567450001297    8.53820908304088
H         0.45125368525518   10.89508160147902    9.75011190041809
H         0.11286957438453    9.87327424942747    8.34673453639152
C         3.16050844625811   10.44559337164795    9.16346532599402
H         2.62037860028145   10.68363740309177   10.06595645053370
C         4.36544428795196    9.77703648953438    9.25287491518231
H         4.75597281392082    9.49765772810667   10.22085563865091
C         5.07915371077565    9.48321071179434    8.10863723135144
H         6.03081309374349    8.98052806144356    8.19145153233186
C         4.59334408894522    9.83110452380925    6.85374320372437
C         5.44598729497211    9.57181439257954    5.63133565020468
H         4.88657917734197    9.84518130866768    4.73083355236351
C         6.70466443632655   10.44281511678142    5.69123700008543
H         7.29870463977983   10.30422898609736    4.79039965392626
H         7.31755411632098   10.18051335521796    6.55009508691540
H         6.43910770623792   11.49550068482463    5.77078666412304
C         5.80731253469209    8.09106273423541    5.50706693722267
H         6.41379055760944    7.92778990342176    4.61857689604669
H         4.89108833720848    7.50134037557890    5.41333297088862
H         6.36634827073587    7.74056109953742    6.37073784554072
C         3.41829765403083    4.66124341461862    4.49329489776178
C         4.64268031232930    4.40838579345446    5.10216787716800
H         4.83057797571485    4.78113106115530    6.10001070945636
C         5.61608263058807    3.67984195619039    4.44205240830087
H         6.56166986417489    3.48384314067635    4.92709347202782
C         5.38242047262513    3.20526627442805    3.16246371840673
H         6.14364327608732    2.63786296183517    2.64704110385125
C         4.16934811719864    3.46300213461153    2.54415809898038
H         3.98185916975138    3.10067080025024    1.54352014936488
C         3.19529062397679    4.18909383875206    3.20224945866583
H         2.25127408639315    4.39056632497080    2.71518308575277
C         2.49722275209892    5.38245938602786    7.04837161406086
C         3.23880722986418    6.29775469313192    7.78845161986878
H         3.56784005283602    7.21840054793882    7.32231199543273
C         3.52347002989331    6.05520338255313    9.11871508731784
H         4.09162887667471    6.77873096538064    9.68508217007367
C         3.06982025848464    4.89444602560418    9.72288347410326
H         3.28601851460017    4.70450785518411   10.76442237833104
C         2.32823666717411    3.98131083076075    8.99195578404835
H         1.96531792751261    3.07874935134615    9.46298513967930
C         2.04101745506049    4.22116999749837    7.65986820485111
H         1.45085611699199    3.50842032820917    7.10196651909401
C         0.62994145323508    4.86609573248315    4.97519695660576
C         0.56316324362181    3.49755964152492    4.72911323029904
H         1.46744150967976    2.90462977188515    4.70163890651734
C        -0.54531686835949    5.61010117110802    5.00528908899131
H        -0.49133435578663    6.66941911583092    5.22055750011308
C        -1.76697118020570    5.00097944382003    4.78488810751683
H        -2.67465846642437    5.58663098657577    4.81089427144976
C        -1.82632238742904    3.64075230877715    4.53173789623747
H        -2.77876118551360    3.16188755373787    4.35549382416032
C        -0.66083911988302    2.89213460364186    4.50788579000964
H        -0.70460682355848    1.82925832850874    4.31601146229256
P         2.19197483611815    5.76267418816582    5.28424730980781
N         1.91681897615466   10.77880441325737    3.57306525944961
N         2.83453179161780   10.84380558829986    5.51038522916064
H         4.26227545795269    7.41997952675260    3.03387004518193

