59
CSD_code = PAGJEN | q = 0 | S = 0 | Stoichiometry = C27H23Cl2N3O2PdS | MND = 4
Pd       -0.23190020653911   -0.77923398373267    1.53461251408486
S        -1.10683101815424    1.19345684155730    5.94899379205246
O        -0.87862505642144    0.87435694370299    7.32037727326071
O        -1.52650697774807    2.51213950612332    5.59367679962818
Cl        0.79892131836389   -2.69280985999967    1.04609157761114
Cl       -1.64382179729937   -1.16663749024072   -0.12002942263788
N        -0.78203656770191    1.16920331586411    1.75461217497378
N         0.81097351906062   -0.34091002186178    3.30342020452986
N         0.40019997030507    0.91855479583522    5.14512182113795
C        -1.32609630357970    1.96626448115620    0.83821806259120
H        -1.71852446265122    1.47290728229955   -0.04405371246891
C        -1.40686715616965    3.33711088374904    1.01196930942317
H        -1.86403215556117    3.94751796188122    0.24983698489364
C        -0.89106161565701    3.90820434516396    2.17015722016819
H        -0.93168137474348    4.97493254651016    2.32428222150794
C        -0.32019487030780    3.08563746737000    3.12554157269975
H         0.09276990678757    3.47454681245756    4.04057484281755
C        -0.29995656438057    1.71529421084631    2.88741941450327
C         0.30890904161648    0.74880969368302    3.78133221163392
C         1.19316234577037   -0.20536923070575    5.64875803718022
H         0.58381044761427   -0.78067623851361    6.35193812632113
C         1.50819992238396   -1.04224449090453    4.36090282634848
H         2.58188153524809   -0.96768982087152    4.13688291916960
C         1.16825183860740   -2.49856929354338    4.54022020225103
C         0.02902310600962   -3.07054253785439    3.99669866466918
H        -0.64121790015689   -2.47268618501211    3.37962650712129
C        -0.23844962962434   -4.41400923337241    4.20187099945737
H        -1.10905315248190   -4.85792542556662    3.74478858335539
C         0.61189889974120   -5.18465910664586    4.97352488440325
H         0.40213786361455   -6.23191377041760    5.13140374830167
C         1.74041595587984   -4.61121396650299    5.53694762819902
H         2.40974027672716   -5.20813325697050    6.13817592884632
C         2.02159341295459   -3.27632621999794    5.31594043333464
H         2.90946119097688   -2.82988747203480    5.74120627552611
C         2.43222717022721    0.28899670185102    6.34047244506800
C         3.25727561416882    1.21450760000089    5.71239672992695
H         2.99047394940259    1.58815939972221    4.73361967168517
C         4.40686534784023    1.66192759760986    6.33720258144730
H         5.04039238254937    2.38392959604039    5.84386702462362
C         4.74496653167621    1.18339016530077    7.59212903734151
H         5.64333016553998    1.53187136919548    8.07906023848349
C         3.92714995868705    0.26041390152071    8.22114798552437
H         4.18598530220109   -0.11256212452273    9.20069425218544
C         2.77293725803611   -0.18370469723334    7.59961327062971
H         2.12980064221814   -0.89719321442364    8.09284888369849
C        -2.13058555553021   -0.02235807178029    5.14151860332547
C        -2.67187431202777    0.31411937125472    3.91125040721617
H        -2.69649386322366    1.35324536501741    3.62306129952505
C        -3.17936948786196   -0.68242437387465    3.09549830751890
H        -3.56788003160822   -0.44116105773454    2.11498997088307
C        -3.22413439399624   -2.00539201305404    3.54579485206927
C        -2.79836040783880   -2.29097630072198    4.84078885584415
H        -2.87521755525455   -3.29818973077248    5.22054056085216
C        -2.21300628998189   -1.31134371967289    5.62794858315810
H        -1.82445194710693   -1.53532585441633    6.60887835358032
C        -3.68382875415739   -3.07816614206412    2.61634492435288
H        -2.95592158729894   -3.17206075421144    1.80658600364044
H        -4.63724507689723   -2.81680096372458    2.16287375497459
H        -3.77732880211501   -4.03410153275663    3.12313277542891

