54
CSD_code = PAGKUE | q = 0 | S = 0 | Stoichiometry = C26H22Cl2NOPPd | MND = 4
Pd        3.19541237787886    9.61207489032743   27.60769694307996
Cl        1.20403854573233    9.64612592740427   26.61253032178089
Cl        2.55619538167597    7.85863310907459   28.87255096486772
P         4.18910164108053   10.91060499043929   26.03285446760903
O         6.52883997332429   11.43996055375275   29.11234568074360
N         5.01542051944413    9.87474931029902   28.64934404642775
C         4.60730209876482   10.12329412685503   24.44992500267019
C         4.42364706695632   11.01613628694029   23.44479004734902
H         4.55066813354932   10.77743509212324   22.40071562921933
C         3.99112912843127   12.31948481815778   23.85917272649434
H         3.77039799780195   13.09143232716643   23.13878602412147
C         3.84854563536816   12.48312271661124   25.19797290467895
C         5.90232887024940   11.14972406028929   26.77550547465053
H         6.59375543150570   10.47837723135473   26.25879999126473
H         6.26017061508542   12.17613465291279   26.67950311226098
C         5.80254260191257   10.77415555018036   28.20564341842273
C         5.06114563379458    9.87970745424357   30.10494239506763
H         5.34269645745163    8.88291802375642   30.45832690085582
C         6.15196365733777   10.94197865330846   30.39987265893333
H         5.77436982831747   11.77648728726104   30.99689852334245
H         7.03670220915015   10.51919004114128   30.88045760256802
C         3.68106321159899   10.22538824704063   30.62224403132439
C         2.96943887301085   11.27039408302867   30.02514527551422
H         3.46742336692147   11.94902819043712   29.33172969836096
C         1.64773832092212   11.49801621431503   30.37929541673485
H         1.09161783482841   12.29106518593387   29.90119979400383
C         1.04006720809295   10.70475968560204   31.33907911727556
H         0.00431677857803   10.86848550215697   31.59530927589049
C         1.75881949520108    9.70025644471317   31.96271326548801
H         1.28807166773231    9.08323573861897   32.71268872418817
C         3.07132580064343    9.45253033346794   31.59864141367328
H         3.61309168192260    8.63520158229163   32.05026756473366
C         5.06816977857306    8.74807563227453   24.35883257370158
C         4.61990184867214    7.77464931390242   25.25808100959623
H         3.85264671959321    8.01375987724800   26.00861161556093
C         5.08521914344057    6.47569103707942   25.17147057333436
H         4.72304205192596    5.73588859633607   25.86924996024889
C         6.00252093541521    6.12351195892102   24.19404763096986
H         6.36518133615885    5.10858552786075   24.13037460565555
C         6.44836436124107    7.07814840960056   23.29353675727786
H         7.16093913242397    6.80847306126801   22.52772168533219
C         5.98838649682292    8.37786420122805   23.37355401238771
H         6.35214343910418    9.12377859063865   22.68199807030565
C         3.38448997003575   13.64609388738434   25.92841691099158
C         3.72104753425669   14.94059107355027   25.52981871148281
H         4.34126993319401   15.08252526351459   24.65689852632987
C         3.28095776597761   16.02994859053388   26.25660427154122
H         3.54814691368282   17.02809730357895   25.94202186490713
C         2.50139201196824   15.84564336038700   27.38748089818992
H         2.16047385367582   16.69916208528735   27.95407962914282
C         2.15286030296404   14.56406330016771   27.78455391551633
H         1.53230186338996   14.42372249477172   28.65715968887304
C         2.58954835153634   13.46985845437884   27.06339870434095
H         2.27654821166116   12.46417966888613   27.33643997072390

