71
CSD_code = PAGMIT | q = 0 | S = 0 | Stoichiometry = C22H33F12O3Re | MND = 5
Re        1.33052282442280    4.45938725948538    2.58548464243823
F         2.38065573162939    6.16660679380678   -1.15874567332960
F         3.21542245378219    8.09299974488723   -0.69018319152399
F         1.42798627080798    7.42404995358086    0.29280361938025
F         4.74389099312966    5.10297162293479   -0.58648626595218
F         5.56389704580554    6.98925886852616    0.04036350361341
F         5.52472212466995    5.32498472661360    1.39533132460223
F         0.52060033392689    0.36229994502195    2.35132036921825
F        -0.43517412720036   -0.04617487099015    4.23015804862526
F         1.22476759407783    1.30979857352576    4.14129031992903
F        -1.77963810946275    1.15418420063832    1.30008234520470
F        -2.77059011237136    0.71722954096941    3.15648041152694
F        -2.92094551153922    2.67497518780134    2.29245542585711
O         2.80842995087812    5.21108618944507    1.34964189174735
O        -0.21761027249255    3.05237250379510    2.46646161204281
O         2.23076909892435    2.66579597482780    1.50248877191512
C         0.30421560696819    5.90664175055278    3.11654305075029
C         2.28212560054867    4.19160270180386    4.29347091691669
C         3.43138205584614    6.36006804592037    0.99054229104514
C         3.62413447806100    7.38271312780911    2.11739407450555
C         2.62362088176605    7.01578455933308   -0.15705950694750
C         4.81985308049406    5.95212856673949    0.44229259956297
C        -0.82528507487321    2.14586227686974    3.26868894913272
C         0.11382995649809    0.92828727219865    3.48971666304576
C        -1.25770983684449    2.67948344351551    4.64189207323188
C        -2.07722697851736    1.65808538024914    2.49994701813450
C        -0.69470478070108    6.95323074398428    3.24242846322761
C        -1.55238540320800    6.79556554002936    1.96630284328191
C        -1.58762575458968    6.74179851770334    4.47507490484013
C        -0.07445244926859    8.35758984589937    3.28298873852045
C         2.47834284949862    4.72897221554592    5.67287150150273
C         3.84939810564682    5.43227792037606    5.67907672240661
C         1.40275439596938    5.73085319533266    6.08173292069521
C         2.50949121665333    3.56026023934448    6.67007023634042
C         1.73756602795900    2.55339991620746    0.17725519536503
C         2.48615509575776    1.36901628269672   -0.41976501169863
C         3.87873831408633    1.58620770222014    0.17184396959204
C         3.56443026958215    2.17327277365310    1.55263418073036
H         2.97547175882492    3.35227415871853    4.13948672840294
H         4.38182070649297    7.01445072379023    2.80436063881763
H         3.93210624413872    8.34514427508877    1.71593299801774
H         2.67838395281632    7.46740022624676    2.65166829588650
H        -0.40751518200536    3.21215304172818    5.06772856242256
H        -2.07560077518466    3.38151709595478    4.50642809149260
H        -1.57678505493279    1.86816034916308    5.29146391850731
H        -2.36443632758606    7.51764170579554    1.98404701271040
H        -0.94343185046869    6.96661707988435    1.08510237270893
H        -1.96398740647546    5.79119884181679    1.92199131440947
H        -2.44565967600954    7.40622297864278    4.41562440261773
H        -1.93595678220334    5.71553801801181    4.50469070760612
H        -1.04077840227892    6.95564097717141    5.38635016778222
H         0.58349531827422    8.46052174825684    4.14111213796312
H         0.49055336438061    8.54415501491464    2.37627498100088
H        -0.86555936678193    9.09881452875844    3.35926561735059
H         4.63787458181889    4.75504357185409    5.36397882005214
H         3.82317502297516    6.27998037618536    5.00208842517515
H         4.07434712341220    5.78430990301311    6.68251718375500
H         1.63481582882620    6.15629875961517    7.05430922058378
H         1.35487176711723    6.51956220342899    5.33920238900425
H         0.43723603054888    5.23987998724538    6.12772612922408
H         1.57533924158055    3.00786808527520    6.63357614712148
H         3.32099278558634    2.87513221422927    6.44182650675724
H         2.65080689819431    3.94004064199321    7.67870088007716
H         0.65453115918464    2.40786048737738    0.22619290833741
H         1.96129325323917    3.46913878102137   -0.39360807726333
H         2.05218603527797    0.43502196482931   -0.05839271601685
H         2.47524201257875    1.37629851396836   -1.50690365453698
H         4.46167064995564    0.67051193718292    0.24270400958804
H         4.43186229520571    2.31044469930897   -0.42843480987640
H         4.25332859225809    2.98437899902231    1.81705273458504
H         3.60575225492204    1.40744987763504    2.33864600622004

