52
CSD_code = PAGMAO | q = 0 | S = 0 | Stoichiometry = C27H15Cl3MnN3O3 | MND = 6
C        -3.99383743016188    5.32151065108919   10.78093369135309
C        -4.32025348192400    3.97880062736099   10.60830655031321
H        -4.46204744083927    3.58591594792097    9.61407507129836
C        -4.46259485529656    3.14843455516693   11.71854209127445
H        -4.71461949968212    2.10927506180757   11.57027529011174
C        -4.29024273737370    3.62091596503680   13.00007978562707
C        -3.96280110666612    4.97350011663229   13.24454249610440
C        -3.76737837386812    5.56849388938918   14.50713631152255
H        -3.86285970380310    4.97438178868650   15.40262461805785
C        -3.45878597755762    6.90480693857625   14.56143348758269
H        -3.30349298909002    7.39676189019140   15.50888121493501
C        -3.34451786658445    7.65088758110143   13.38313647650799
H        -3.10613357028780    8.70537949425176   13.42749001743550
C        -3.81911488753126    5.80708685454965   12.11331198146983
C        -1.12068795887852    8.15796335106575    9.15933383595659
C         0.23642681629036    8.20203159039607    8.85564664556398
H         0.96263394973888    7.95140511096691    9.61261548779567
C         0.65441067805180    8.55267683783092    7.57223687733719
H         1.71072827742930    8.57493899113193    7.35132279148015
C        -0.24550666178415    8.87068436178378    6.58121679702019
C        -1.63672047950251    8.85446658034932    6.82543306531854
C        -2.65103589174220    9.15636048050539    5.89373637530071
H        -2.38667989258310    9.42710832398154    4.88322988751807
C        -3.96023940172428    9.09276586660622    6.29929100018347
H        -4.76211888164608    9.31292460107946    5.61221960230601
C        -4.27284943332097    8.73724214491889    7.61729979979252
H        -5.30115526589015    8.68576855544306    7.94899732862923
C        -2.05040409314205    8.49684229184482    8.12805073325663
C        -5.70542844550778    9.54883116636172   10.80702574388551
C        -6.99717883124003   10.07501324209363   10.89212989540582
H        -7.84421888734014    9.42897364092117   10.72790048529305
C        -7.18669903863187   11.41909883943791   11.18767973852457
H        -8.19196819108755   11.80783852562213   11.24825753753669
C        -6.12523807598589   12.27173591481346   11.40687043891015
C        -4.79778972330502   11.81121716610257   11.34085003815497
C        -3.63597723723221   12.58355045132672   11.55199980268844
H        -3.72727012198854   13.63300281250650   11.78477212968847
C        -2.41182681717681   11.97305736228497   11.45952591766565
H        -1.50256906010327   12.53104716281422   11.61937522694365
C        -2.32181081207147   10.60951089561080   11.15822979763196
H        -1.35595735364586   10.12462115956849   11.10065871935984
C        -4.60710624148397   10.44155090097028   11.03292148517664
Cl       -4.47725865536406    2.54458446230274   14.33874578567241
Cl        0.33063927406846    9.29981121970908    5.00841435638566
Cl       -6.42653043724576   13.93995458099139   11.77161396546945
Mn       -3.48292227796312    7.88434415806415   10.37670894721953
N        -3.51747975909880    7.12630861240126   12.18309008215938
N        -3.34898663824761    8.45099397141625    8.51308876906669
N        -3.38813618649078    9.85122911907606   10.94146709594944
O        -3.81768104604225    6.18695370925796    9.82874531778567
O        -1.62578061461922    7.82315220357918   10.31466407764081
O        -5.39404666282693    8.32268827309791   10.56216533473165

