69
CSD_code = PAGMNT | q = 1 | S = 0 | Stoichiometry = C36H30AgP2(1+) | MND = 2
Ag       10.47242293432922    4.21536329306498   -2.07003707175999
C         7.48452036030724    2.51288482308059   -2.96294077117935
C        10.25765932126101    3.09890176404770   -7.49859212302258
C         9.06143042267535    2.48942880010336   -7.15461260305476
C        10.86644959214287    3.98264534610273   -6.62116788599552
C         8.46718828392118    2.75345393424083   -5.93281103389463
C        10.27731508263407    4.24783826381793   -5.39946822946508
C         9.07558971103942    3.63623614979277   -5.04755665220765
C         5.07668547026995    7.09846648806067   -4.15681459980738
C         5.15705436717803    6.42414252163981   -2.94736936366068
C         6.00134434244514    6.84721724826731   -5.15713989838506
C         7.00727455800323    5.91716655047316   -4.96046157594818
C         7.07838882420769    5.22925527993074   -3.75411467770000
C         6.15975531922874    5.49713169441221   -2.74000399571536
C        11.04943096849928   -0.35979910969866   -3.59370628325282
C        11.67096116905557   -1.34875403540322   -2.84466024563786
C        12.62125241938889   -1.00963084421749   -1.89602620633248
C        12.34063725258838    1.30907642063718   -2.43888358530501
C        11.37859631890010    0.96550836701884   -3.38954792582187
C        12.95792566736165    0.31750650133302   -1.68634120201102
C        14.24928588649335    5.38469409118950   -5.13983553107340
C        13.61746154349933    4.93519331970297   -3.99627544962257
C        14.75245079455225    4.46996049357389   -6.05287036542146
C        14.62604859302030    3.11036105252248   -5.81825903351048
C        13.49354190011440    3.56843132794718   -3.75493118516858
C        13.99896185297287    2.65380153634085   -4.67163393990098
C        13.97485977877480    3.15775594311135   -0.96675261816662
C        15.30828010441912    2.93847493278263   -1.30123179466456
C        16.27382173646568    2.97818866903593   -0.31211569040736
C        14.58993744662860    3.45607901447029    1.33635709375256
C        15.91689381331259    3.23466789839582    1.00300985501784
C        13.61894708592804    3.42210570969833    0.35259538443531
C         6.25625412052160    0.11349128950775   -2.31797894584220
C         5.59045311991749    1.04573989449287   -3.09839995795854
C         7.53233179130464    0.38189819614551   -1.84762043166674
C         6.19879543994540    2.24474185392209   -3.42450915678872
C         8.14166428374741    1.58095926321697   -2.16464877930469
H        10.71652450835950    2.88526041392274   -8.45135797524656
H         8.58878742379419    1.80342905824061   -7.84081685745965
H        11.79801054042360    4.45977825446342   -6.88502276500328
H         7.53854209768506    2.27098230054480   -5.66438577655402
H        10.74261307007153    4.94853074845798   -4.70531542863944
H         4.29338182512398    7.82296968544275   -4.31747765426169
H         4.43884906922024    6.62428651798045   -2.16685538617444
H         5.94010784269842    7.37686570379626   -6.09565930313117
H         7.72923240817999    5.72138403007684   -5.74094702112346
H         6.23308392813895    4.96667161801043   -1.79862628036647
H        10.30665814925358   -0.62177328965037   -4.33191486527064
H        11.41140381508742   -2.38445958945236   -3.00055381680337
H        13.10258988485868   -1.78041312995299   -1.31366601315231
H        10.90374568398704    1.74997731808961   -3.97278350758922
H        13.69600254632996    0.58066556205642   -0.94210977173695
H        14.34883516238624    6.44403198946751   -5.32253177495117
H        13.22094088268010    5.64107945080768   -3.27232518332752
H        15.24356813921915    4.81876066405484   -6.94843969089590
H        15.02006059414963    2.40046835645994   -6.52964290474111
H        13.90287782624613    1.59282425794466   -4.48968171352893
H        15.58249829805929    2.74132733940960   -2.32814787960053
H        17.30876859451043    2.80896527939859   -0.56757873449493
H        14.31486961202713    3.65867203770001    2.36023383177450
H        16.67567977819030    3.26556248019660    1.76956054395607
H        12.57746890970684    3.59839147149573    0.59996077895613
H         5.77645891445543   -0.82041943414737   -2.06916117344135
H         4.59313623832535    0.83770256773722   -3.45517322563795
H         8.04845685472408   -0.33920323915504   -1.23213938912683
H         5.67545010896408    2.97558406298461   -4.02563671276255
H         9.14156868145612    1.80832910053821   -1.79079327242998
P        12.65801434903913    3.08552585977017   -2.21192474688189
P         8.39054258566068    4.02605861064731   -3.40052985384670

