35
CSD_code = PAGMIV | q = 0 | S = 0 | Stoichiometry = C20H11ClN2Pd | MND = 4
Pd       -0.48402079358714    9.34063448818240    7.37946076712984
Cl       -1.29862579141248   11.45115998021991    7.19282603364322
N        -0.32939896279713    8.74202706818968    5.30963568990765
N        -0.32744032955626    9.11464999724481    9.52234115863858
C        -0.61948975117159    9.38306847687236    4.19077913786560
H        -1.00263175720065   10.39248722808854    4.28994207982466
C        -0.44578299967738    8.79953352797902    2.93131017765697
H        -0.70031725440263    9.37138876848670    2.05275344639479
C         0.04285745370688    7.51343750121051    2.81056812576541
H         0.17757624092873    7.06055915515097    1.83892937681111
C         0.36124897883642    6.80385201264358    3.97630387909276
C         0.87588339131790    5.46757032891034    4.05249441684983
H         1.03941091237534    4.94742389984336    3.11906846988576
C         1.15836663231834    4.84563547535593    5.22978163205247
H         1.54419029647195    3.83571796623794    5.22114668573271
C         0.95875001865945    5.49002422248691    6.49278182763727
C         1.20715950131973    4.95607388531491    7.76659264203313
H         1.59432570589361    3.95071669276347    7.85533428332016
C         0.96002943711921    5.70534131136438    8.92712917298161
C         1.16110477589175    5.29274065151289   10.28348311448375
H         1.54690193492593    4.29992461034464   10.46890759307511
C         0.87988969323129    6.11178168186601   11.33353215613058
H         1.04481565512544    5.76370274079489   12.34361286066676
C         0.36500647517945    7.44066734291818   11.17453404821143
C         0.04729390409623    8.34373384015139   12.19791646558408
H         0.18298020985342    8.06835922820103   13.23384882724747
C        -0.44195903401441    9.58853259729452   11.85379490218451
H        -0.69620253134544   10.30551654817115   12.61860922752119
C        -0.61680685306526    9.94204054021352   10.51161202359033
H        -1.00023551128608   10.91836599334294   10.23717499246879
C         0.15548998948622    7.88421050771546    9.85738445434669
C         0.45405910866296    7.01776346777637    8.77915641265492
C         0.20223769800555    7.56819607885391    7.53607650140206
C         0.45280845618643    6.80810079362735    6.40865571812149
C         0.15312509992436    7.47176139067098    5.19532169908740

