42
CSD_code = PAGPEV | q = 0 | S = 0 | Stoichiometry = C18H14N5O4Re | MND = 6
C         6.86004165897981   15.80054644888340   11.95695014478847
C         4.25930390446103   15.45418455705967   10.86819964831815
C         6.40727340225022   16.26624266246740    9.22131381857121
C         8.12208548971023   12.70123494988564   10.77154193378307
C         9.34416845116199   12.00049206352305   10.68295438814528
H        10.10554850816165   12.39917730420571   10.02927017873058
C         9.56342672945883   10.86096472443910   11.41964631282851
H        10.51329426493773   10.35138270726214   11.33714562489018
C         8.59165051506084   10.35856283732470   12.27633204129963
H         8.78059438857460    9.47312286320194   12.86371243289421
C         7.37491826397694   11.00793509048950   12.36856004277630
H         6.60340406606127   10.63023236433876   13.03077337411102
C         7.13752206982505   12.14571190940610   11.62156827331048
C         4.84389124362323   11.98635895368091   10.92101612174030
H         4.92366528909069   10.92281649620496   11.18238213087271
H         3.83448454063765   12.33850692202451   11.17288525429580
C         5.08653962440617   12.18586618764271    9.46377133254562
C         5.05351049225855   11.37223180299785    8.35771209244685
H         4.84116725927769   10.33035834056163    8.25803689680574
C         5.52096279813964   11.87463938974763    5.96125924804437
C         5.05160957321916   10.67373988556571    5.43928347808826
H         4.56541347427031    9.94703660410688    6.07123564897926
C         5.19167663909328   10.40837631761124    4.09477719093649
H         4.82590159867939    9.47599817676961    3.69124547664405
C         5.80130671129177   11.33295531274482    3.24006898938512
C         6.26318154989993   12.53954216778902    3.78014942341058
H         6.73460745681692   13.26248934205687    3.13194284720886
C         6.12627929478616   12.80783100697730    5.12139316632244
H         6.47997170256925   13.73521913595436    5.54208615291854
N         5.83625432043294   12.80659711291212   11.64894941505405
N         5.44635649465192   13.41880347163452    9.03431987185331
N         5.62367048379624   13.40663430450259    7.76288348134241
N         5.39265128203382   12.18256930869441    7.32227695316863
N         5.99231877215994   11.04185917147291    1.91974834206000
H         6.24131423956188   11.79183975084304    1.29866995093344
H         5.47838165064669   10.27717651873751    1.51819667915350
O         7.38368469504335   16.29932519890343   12.84398672594312
O         3.17462940714791   15.74735594920472   11.12222567038652
O         6.66743484484832   17.05864442511720    8.43869184133719
O         7.91945607371581   13.79116792513976   10.11118687689445
Re        6.05466604521774   14.82234416207210   10.47901372299513
H         5.53508073006653   12.88352617584187   12.62363680378946

