121
CSD_code = PAGWUP | q = 0 | S = 0 | Stoichiometry = C60H50N4P4PtS2 | MND = 4
Pt        4.07124136356818    0.66167350801123    3.82679717237808
S         3.94652573170391    1.21106303887332    1.49893438982274
S         5.57201150362769   -1.05568104617692    3.20257904128604
P         4.52792008221499   -1.36713471167266    0.61396540476300
P         6.70030499727478    1.21990545682631    2.06966108191637
P         4.60791281740683    0.16737062928139    6.11288491896177
P         1.85470953779643    1.63982607090854    3.83084538586156
N         3.58130497572209   -0.05323275764806    0.57518197462801
N         5.46168868355109    1.67024101904156    1.15023920810096
N         6.85077609568613   -0.31989123099513    2.52201696005021
N         4.83683908309564   -1.96274229959501    2.08059972957297
C         3.60837132890589   -2.64313774741716   -0.25650926395190
C         3.39684023521310   -3.88557750483308    0.31974052106419
C         2.64947043102209   -4.83474991666655   -0.35468037561727
C         2.11700466604961   -4.54009414594491   -1.59979098992568
C         2.32956621737709   -3.29612749384079   -2.17373511033587
C         3.07760846953620   -2.34628372152550   -1.50306457413278
C         6.06398580306594   -1.09450662704525   -0.33493084408160
C         6.17238736344938   -0.03411964380385   -1.22273592275645
C         7.35792334526908    0.17067419882676   -1.90496358203500
C         8.42827333792436   -0.68475403484121   -1.70626529142333
C         8.31533694926980   -1.75061635076080   -0.82760099816089
C         7.13365047522281   -1.95837510844878   -0.14238697158036
C         8.19444313488170    1.60947797469567    1.15778714203293
C         9.29557196964639    0.77134683194713    1.23095225633774
C        10.42250609898217    1.05615762002422    0.48158319009153
C        10.44382253284531    2.17245533959132   -0.33868579325758
C         9.33958482120281    3.00724994479247   -0.41218123341220
C         8.21270255993179    2.72791818271416    0.33816128230017
C         6.68778607738945    2.28779169478117    3.56357050993991
C         7.79754972873025    2.30783562939576    4.39778748982480
C         7.80151184359923    3.10950862817956    5.52353026923779
C         6.68811435244744    3.87569082987028    5.83108001705065
C         5.58152910967359    3.86408630252702    4.99885383437339
C         5.57410448236824    3.07089540991577    3.86043263673511
C         6.26452274881042    0.38762330004095    6.83133584847256
C         6.51789029286149    1.20864362371430    7.92427993258468
C         7.80689739244514    1.33095577834017    8.41190197129948
C         8.85003440451326    0.64765218637811    7.80975643612418
C         8.60445443804453   -0.15594610427807    6.70687090718828
C         7.32038987003681   -0.28296118258178    6.21535404878871
C         3.54191131049141    0.89320052586742    7.40355253458727
C         3.16367193642443    2.21889145554272    7.21544068350687
C         2.35378082170050    2.85459610064082    8.13595475132776
C         1.90362927374628    2.16232619403891    9.24839239800002
C         2.27097249531204    0.84035903337256    9.43676303512470
C         3.08937800317992    0.20324707757608    8.52067736492978
C         4.37582314229439   -1.62493101726772    6.33996563465058
C         3.51279845751529   -2.26493132543824    5.45687276959230
C         3.27759962985195   -3.62230056647548    5.56344708400917
C         3.90800924037287   -4.35242705555478    6.55774444332896
C         4.77188722484155   -3.72235256625434    7.43946531714716
C         5.00966459768407   -2.36356013638094    7.33438176182578
C         0.85391774535884    0.58074406720915    2.73367919381829
C         1.33184343485406   -0.67187853118306    2.37244751358544
C         0.57961666224071   -1.49823102854616    1.55718613419675
C        -0.65946627458405   -1.07764806998951    1.10740262366416
C        -1.15316328497492    0.16245900789514    1.48517660557252
C        -0.40431629362607    0.98940621092125    2.30000318600464
C         0.68673461038536    1.68197472676780    5.23369711319210
C         0.68776755671089    0.54412312683213    6.03634429877490
C        -0.17240191505206    0.44208455549297    7.11026113719052
C        -1.04208814698774    1.48260242905211    7.39691256010242
C        -1.05386712271146    2.61240136202078    6.59737759900260
C        -0.19810317792012    2.71430663740284    5.51419126215595
C         1.73456570055977    3.28392180928668    3.07525509060676
C         1.99663711331242    4.39931428789319    3.87157336492439
C         2.05522177893658    5.66067210427442    3.31204244774409
C         1.87528622303423    5.82143492493372    1.94666138222952
C         1.64194080669797    4.71546430806718    1.14614473323056
C         1.57714944480004    3.44999589642622    1.70135953779677
H         3.81757166043833   -4.08238306020751    1.29505624480810
H         2.47883884597243   -5.80557852975003    0.08895111162144
H         1.53298269565564   -5.28230786213570   -2.12507867471987
H         1.91047405061659   -3.07093821649929   -3.14404729328491
H         3.24925690450371   -1.36676114524958   -1.92573881370588
H         5.33268442503892    0.63331572113640   -1.35560760943293
H         7.45134715417384    1.00411721024464   -2.58652474250410
H         9.35657839517954   -0.51666949370760   -2.23346401677618
H         9.15397843036751   -2.41481708266578   -0.67332346136000
H         7.03006411046843   -2.77301859092189    0.56144799510548
H         9.24215277085918   -0.10280853927016    1.86302169531992
H        11.28416275246790    0.40561478887638    0.53079415753010
H        11.32339383731667    2.39128719427977   -0.92743360723635
H         9.36029892863429    3.87363028415754   -1.05800555558660
H         7.33257000341250    3.35274776578560    0.29080523525268
H         8.65404130466389    1.69817187665584    4.14393918396201
H         8.67161310708696    3.13879650732375    6.16284971169197
H         6.69170245999956    4.49840915957778    6.71406539070428
H         4.73373422321385    4.49821860833528    5.21612555490137
H         4.75875687704148    3.14983483291238    3.14423374598534
H         5.70661990931874    1.74410394439609    8.39647012717993
H         7.99710834505769    1.96234766385317    9.26807040946394
H         9.85420445157689    0.74382517958021    8.19643593702623
H         9.41755463932154   -0.68299930564897    6.22957182560631
H         7.12315824035800   -0.90289481670664    5.35073512385505
H         3.51581601732974    2.72962732468605    6.32780864981808
H         2.06265802997173    3.88429724399257    7.98689567675595
H         1.26244738422716    2.65201344752755    9.96619040056502
H         1.91653111905830    0.30152940254808   10.30358296863215
H         3.36871016754833   -0.82983516931782    8.66893011902122
H         3.03837318441897   -1.68091254231252    4.67462293829924
H         2.61008487672096   -4.11045437042910    4.86914540701485
H         3.73190168615175   -5.41462519721555    6.64381355551067
H         5.26564957060271   -4.29392254926117    8.21217793539934
H         5.69271071304526   -1.87702087183771    8.01718810645027
H         2.30953159448337   -0.99466804153678    2.71383244127352
H         0.96891043627179   -2.46215991946806    1.26456641463732
H        -1.24526412484274   -1.71656002879975    0.46266131124602
H        -2.12543754110896    0.48469326672015    1.14072116172991
H        -0.78710570273637    1.95618317146726    2.59819333275884
H         1.38227192303105   -0.25542773024181    5.80825715887037
H        -0.16388040196785   -0.44425615034599    7.72728276189807
H        -1.71204547783319    1.41101082158821    8.24092939067502
H        -1.73835806512044    3.41988368659641    6.81475617854969
H        -0.22402625256279    3.59596850358543    4.89019359957598
H         2.15005768640540    4.26249249105894    4.93423921843831
H         2.24840380200546    6.52109195857072    3.93687883743405
H         1.92526914679799    6.80704034166905    1.50799189406245
H         1.51411599199579    4.83795502095500    0.08069043778979
H         1.40645536638318    2.58823468081784    1.07237425638083

