88
CSD_code = PAGYON | q = 1 | S = 0 | Stoichiometry = C41H42AsNOPPd(1+) | MND = 4
Pd       12.95169154429714   14.54995320949188   29.16571320661603
As       13.98777180356072   14.75440274181679   31.38825685123333
C        12.06001316657199   14.54003200172255   27.38082890446061
C        11.97930309704760   15.53556568326787   26.39370995314283
H        12.47885913882553   16.48955917931836   26.52836614515212
C        11.27635294926464   15.30594240334260   25.24292892430831
H        11.21246843403522   16.07215784325080   24.48394636462981
C        10.63420301751324   14.07303097306085   25.01430387877194
C         9.92728102792146   13.82859594647025   23.81818736920847
H         9.88225855230484   14.61392326467185   23.07799181192150
C         9.31587070589541   12.62761183036902   23.59825191798823
H         8.77576557927090   12.44606082729456   22.68182906353066
C         9.39153814925857   11.61725724146559   24.56793938930247
H         8.91096741087359   10.66829951133134   24.38289768511599
C        10.06750850262499   11.82228209104709   25.73827894554231
H        10.11767035333858   11.02131439045095   26.45994740215070
C        10.70435553068163   13.05475362260845   26.00429857705789
C        11.41929026666411   13.33458202463191   27.19886719452761
C        11.56002500519947   12.33732826943313   28.32806532311654
H        10.74238440101986   11.60080348156629   28.32949437272048
C        12.89595850264288   11.60496802762336   28.15220654245136
H        12.97340470291337   11.26425983448672   27.12123448164335
H        12.97835644913444   10.73681772867378   28.80234279072588
H        13.72060949783431   12.30355485114042   28.35507716643158
C        11.80448144760665   12.23651265447275   30.74671545273772
H        11.64071010257233   12.79555069197224   31.67536781909762
H        12.84943608699654   11.91244228308776   30.73502310500265
H        11.15152411888747   11.35532830591357   30.75075167257267
C        10.16231536187376   13.64718663372892   29.77860868781077
H         9.42116511020110   12.83922229681824   29.83008255032173
H         9.89945329651022   14.29944641055175   28.94333695160696
H        10.11271213932586   14.21370672572862   30.71049383879947
C        12.95075963612465   16.13711859252443   32.28284047020670
C        13.37885902034988   16.77589534375501   33.44202228268946
H        14.29331805483880   16.44638588730709   33.92512306974393
C        12.64143255843787   17.81812170631854   33.97308381856735
H        12.97729053148732   18.31245179280029   34.87237391589859
C        11.47193708669228   18.23027057542160   33.35221413257248
H        10.89966887669007   19.04422012276162   33.77025210417406
C        11.03807262407964   17.60040710142836   32.19853032223826
H        10.12651991551494   17.92100654060927   31.71608382204775
C        11.77849607224829   16.55866836356685   31.66699334454385
H        11.45406985272653   16.06171736907877   30.74625756188925
C        14.52243978904759   13.64718042681338   32.91383819628489
C        13.66361477491407   13.47747948265904   33.99720544226795
H        12.71745076757188   14.01207428018922   34.01556525072059
C        14.01988291495243   12.65529735690587   35.05170613937138
H        13.35402206160530   12.54132657529427   35.89392974540694
C        15.22886562197421   11.97914512492682   35.02720564473910
H        15.50706989600345   11.34015202529580   35.85088942538520
C        16.07741902990540   12.11946120522623   33.94160601680615
H        17.01587605482840   11.58543566542267   33.91734916571961
C        15.72160731938972   12.94256418961477   32.88755309158388
H        16.38098520140491   13.04395737383632   32.03189337841130
C        15.62778863578766   15.81549742421128   31.06065891772285
H        15.40887093116282   16.84883980886236   31.35246599671202
H        16.45522925744574   15.45931536193687   31.68380394310745
C        16.01395496098096   15.77377319551744   29.58695535342851
H        16.76112263731654   16.54287914101937   29.34808136036976
C        16.60457693626768   14.42147788213492   29.19600978741140
H        16.95905631264712   14.45859839272053   28.15602259654359
H        17.45869246685724   14.18556500468669   29.84777444249927
C        15.15910482390355   16.07576359488653   26.87270980915491
C        15.71082487244511   17.21132016034833   26.29232800389480
H        15.72586700466727   18.14632168104690   26.83401990254482
C        16.22265613091735   17.14050223387633   25.00829460408934
H        16.64904429852474   18.02129165850476   24.55280599033338
C        16.18293365627968   15.94680187915580   24.30595516618704
H        16.57971658858616   15.90042492898513   23.30353560184328
C        15.62563431336051   14.81498707402171   24.88169607466754
H        15.58595533037623   13.88951494417487   24.32745597241009
C        15.11154437418896   14.87852127940090   26.16246481662667
H        14.64720351111161   14.01068423947825   26.62303521332486
C        13.98371306434803   17.74639504810501   28.97753972012702
C        12.61150736909278   17.99023009247152   28.98529321401408
H        11.92780947614345   17.18180698815801   28.72879449992501
C        12.12676006783279   19.24314819347017   29.31100069964898
H        11.06359837869194   19.42871620034358   29.30977905781228
C        13.00830580180819   20.25910301575909   29.64213272963503
H        12.63334466241942   21.23636626599658   29.90405424663759
C        14.37346901360173   20.02225957476699   29.63880314552820
H        15.05971084678416   20.81467206929872   29.89698146575114
C        14.86517499853148   18.77271278318107   29.30529674665538
H        15.93311996512678   18.60360542113030   29.30746364822332
N        11.51058971667164   13.09764751248629   29.60021790832476
O        15.59597870546184   13.43739620233848   29.33326392128747
H        15.96156154667202   12.58030058833171   29.08363867459343
P        14.48711623052647   16.05627007662634   28.55660608799410

