91
CSD_code = PAGYIH | q = 1 | S = 0 | Stoichiometry = C42H44AsNOPPd(1+) | MND = 4
Pd       -0.34794550055153   10.84267577933707   17.47979157593444
As        0.39973628406965   10.23091472261932   15.22612220562735
C        -0.71982961164615   11.56479966320618   19.31255396184816
C        -0.37100495838787   11.10452108134212   20.59091765193211
H         0.14956878348331   10.16253987086468   20.71695207935382
C        -0.69005935104580   11.84310865597621   21.69680643806914
H        -0.42653797831480   11.48517572389691   22.68137185234567
C        -1.35193932332274   13.08083082582441   21.58088920899811
C        -1.66116934923250   13.85232630992931   22.72080645051817
H        -1.38458333489320   13.46825785320249   23.69163534922091
C        -2.29265461698509   15.05701310359662   22.60156950115033
H        -2.52794493876073   15.64285556411882   23.47670741823639
C        -2.63549193251034   15.54246754511343   21.33141445128469
H        -3.12638670304855   16.50018467884277   21.24508780310465
C        -2.35260919062889   14.81819364137111   20.20698490191434
H        -2.61829659275089   15.22610291068627   19.24385798581141
C        -1.71101100428441   13.56251206118489   20.29244008617065
C        -1.39300878490958   12.75858877121443   19.16448390942743
C        -1.75438869948214   13.17100865189185   17.75080435627694
H        -2.63401165864934   13.83183065875930   17.73668755172935
C        -0.55633174916177   13.91285233856207   17.13732806346179
H         0.24605270326059   13.19439367602104   16.88456782944787
H        -0.16625216799827   14.61811356965244   17.86876095914776
H        -0.83197580669159   14.46979560032545   16.24438544537394
C        -3.26519877940500   11.28881750142557   17.53870142092644
H        -4.15211790634785   11.91842820950407   17.39123327861926
H        -3.15086302851203   11.10618993343033   18.60871103687527
H        -3.43198215742376   10.33678896773746   17.02793829155102
C        -2.33508805260184   12.23406030734285   15.57902366422315
H        -2.60416080376563   11.30808620464911   15.05839439900133
H        -1.45067789274592   12.64773157677780   15.08529704816492
H        -3.16426155117090   12.94480345234874   15.47820269551354
C        -0.09618364621028    8.35811778025214   15.17808917450474
C        -1.03371186919975    7.92562206907726   16.10990286761286
H        -1.51468261386587    8.66102138959708   16.76882626174774
C        -1.36096585598905    6.58417608550576   16.20485465778477
H        -2.08384054256326    6.25194922561780   16.93506458419208
C        -0.75312873495260    5.66965872111692   15.36171947970156
H        -1.00194669567703    4.62212998613735   15.43538954966041
C         0.16918304989282    6.09533687522423   14.41769856862465
H         0.63331589053120    5.37921024362258   13.75614922316666
C         0.49719434854953    7.43538140128759   14.32420732170029
H         1.21498183174098    7.77701774876540   13.58524118705008
C         0.38680287787311   10.71283071060761   13.32845549021863
C        -0.57257604527954   10.17515696567631   12.47519597755118
H        -1.28049735712460    9.44705184323482   12.86257132466927
C        -0.60928622244997   10.54938242852776   11.14350291205683
H        -1.34726539150342   10.11932841164043   10.48313963867522
C         0.29967683122270   11.47592885476104   10.65838846822296
H         0.27020375339274   11.76717779952306    9.61987018643714
C         1.24299054505008   12.03275320732510   11.50641527478601
H         1.94661429756986   12.75994648706167   11.12950682064622
C         1.28210578829619   11.65916060171717   12.83870711744346
H         2.01634714499159   12.09883588226565   13.50795908969807
C         2.33407492828524   10.04169292117329   15.56250972593022
H         2.83963516385787    9.63805945304692   14.67781456621279
H         2.75159503398593   11.03866411157311   15.76211771352112
C         2.55626525373045    9.13745922456761   16.77245181104397
H         2.24961117876846    8.11382226216795   16.51049092766814
C         4.02728134504595    9.09293465582435   17.20319004970607
H         4.48540244033072   10.07908647791090   17.10448350389674
H         4.10590173194186    8.79240908001595   18.25010392394753
C         4.81826349942305    8.07834815000462   16.37858221228494
H         4.75127311635109    8.31391385980450   15.30678040311503
H         5.87459366644993    8.12205498007723   16.67408538841286
C         2.45079008707398   10.50927120338204   19.35672665934008
C         2.55472663650933   11.88329320288349   19.15757325839869
H         2.01771467256948   12.34056924664442   18.32627246604973
C         3.30987481116331   12.65243453360922   20.02056250058153
H         3.39116408505337   13.71817897993937   19.86970623720148
C         3.95328943698481   12.05083159389314   21.09159244313475
H         4.53645078435886   12.65094499237420   21.77282149514060
C         3.84063390664875   10.68567490287167   21.29875259270763
H         4.33463867098432   10.22479824020132   22.14053768647164
C         3.08973985982432    9.90851630177230   20.43391231195421
H         2.98455537267743    8.84547306326752   20.60298022599890
C         0.89545881076751    8.03851325672091   18.88286892569250
C         1.73876838409342    6.93534631007959   18.98117364759536
H         2.75755238879252    6.98174220359651   18.62731821744309
C         1.25458254721693    5.75158669808152   19.51068152959274
H         1.90919930592629    4.89682550546682   19.58724213463923
C        -0.06023020117465    5.65749818708567   19.93661010274389
H        -0.42791480215022    4.73050623719831   20.34930132515337
C        -0.90727791617013    6.74847078763167   19.82139193512000
H        -1.93591540187409    6.67216856070324   20.14077103171257
C        -0.43392662586266    7.93363016689359   19.29136464167637
H        -1.09805064487846    8.79259933058328   19.18125792364671
N        -2.07128331156561   11.94107887288518   16.98837035606868
O         4.28043251767333    6.79790774079138   16.63541595263385
H         4.81898888457710    6.13071391956558   16.19885577479694
P         1.40573465270450    9.62433665638940   18.16974435136114

