53
CSD_code = PAHBOP | q = 1 | S = 0 | Stoichiometry = C19H29MnNO2S(1+) | MND = 9
Mn        3.49039569911455    3.21620275722723    2.79483935186992
S         1.56836272341251    4.75875593315163    2.83166204419837
C         3.73155780569726    3.41081789726197    0.52689871242179
C         2.59861266947159    2.58189950440512    0.73319395737253
C         2.69759471163039    1.45369305984340    1.57431688265988
C         3.95565617132632    1.07682783311504    2.11513757060934
C         5.09197361835759    1.89734072875271    1.89018482920627
C         4.99319612898175    3.02750416562567    1.03226173840246
C         3.60626549199697    4.64129082741392   -0.33121366849094
C         1.33353815162043    2.84823444926265   -0.03355255379943
C         1.49396887552923    0.58263014189915    1.81634790791311
C         4.10415499929161   -0.26395961787201    2.78270141154465
C         6.43226599590246    1.50321674055857    2.45341042883985
C         6.24295977094361    3.72985912469243    0.57707377292154
C         3.08793770691234    2.61298884948366    4.41283871139931
O         2.81142747565355    2.19184761681986    5.44785115712485
C         4.52673978425508    4.45129702108142    3.53118775493272
O         5.20358414923764    5.26808136035076    3.97971374169829
C         1.52196374263457    5.56494377150265    4.30416224528707
N         0.66710676288545    6.50205983435285    4.60667897248466
C        -0.35236080438891    6.92888285515147    3.66919371052761
C        -1.60191492654939    6.06165028496531    3.79050736143638
C         0.72664447367957    7.17286375975122    5.89323699267789
C         1.58826389025053    8.43011180581829    5.81396272526934
H         4.32989290211791    5.39727837539593   -0.03598430832638
H         2.61613219337487    5.08174483900696   -0.23613967702869
H         3.77420287078093    4.39549316244477   -1.38146005991854
H         0.67989778289468    3.54111713663433    0.50090295971825
H         0.78380401610672    1.92659082482635   -0.20394453472222
H         1.56193398676535    3.28214206816287   -1.00406318644424
H         1.41289771355867   -0.17927847388325    1.03874869932745
H         0.57888825159010    1.17009895024980    1.81754010205795
H         1.56164384923646    0.08224177635539    2.77882921823496
H         3.45830185590433   -0.99458639918999    2.30073246173440
H         3.83809746522243   -0.22285736729492    3.83907832413828
H         5.12511912388710   -0.62541142863535    2.70659717733892
H         7.06275790735665    2.37513235347479    2.60554651754760
H         6.94527089195559    0.82111139890838    1.77285634587021
H         6.31993771009174    1.01217006341070    3.41680621468026
H         6.09429467205653    4.19259857511469   -0.39451018939773
H         7.05929006985623    3.01795583784715    0.48236738916733
H         6.55139687210640    4.50508257968533    1.27886104752153
H         2.25294118529347    5.28547362381594    5.05525553983753
H         0.05612799911852    6.84842972349176    2.65902091803963
H        -0.59519428691302    7.97158916570424    3.87611288625810
H        -2.02274363257878    6.12416774104575    4.79053494947896
H        -2.34989896544890    6.40045851236061    3.08065025560757
H        -1.36292457722096    5.02392143955345    3.57579781354871
H         1.14180385027221    6.48724057165326    6.63423889915046
H        -0.29149368488697    7.43135312793230    6.18961051540726
H         1.61034406725498    8.91624389805529    6.78438638462348
H         1.19057110506756    9.13370765366480    5.08754941509113
H         2.60631173725099    8.17534956565488    5.53078216274558

