26
CSD_code = PAHCAC | q = 0 | S = 0 | Stoichiometry = C6H13B5FeO | MND = 9
Fe        0.57072718465906    2.36400043412905    1.68859069836363
O         2.86203838723335    2.36401682383929    0.00358763946495
C         1.97485256827339    2.36404901350767    0.76257883937375
C        -1.36639802395086    2.36399500885650    2.34028156776142
C        -1.15123799395589    3.50705047300198    1.54726242674596
C        -0.74091237945320    3.07435067948132    0.27630461697727
B         1.36324306523232    2.36400107929974    3.51379112023484
B         1.58436628489466    3.72619981397532    2.46491181778977
B         2.87531434215278    3.29928250114535    3.52582054073269
H         0.62003277450645    2.36401093658331    4.42630809723489
H         1.12882576638774    4.80096664851978    2.42460304874529
H         2.92462676090545    3.88092052965985    2.38243197474555
H         3.31485858073573    3.97706618856302    4.38371601680751
H         3.76306536282389    2.36399436410690    3.28020476412344
H        -1.71150159282062    2.36399299617730    3.35415087938578
H        -1.29003897872492    4.52230258619662    1.86054913929077
H        -0.51137453070703    3.70060802379580   -0.56507324520027
C        -1.15123463327896    1.22094186606577    1.54725902517050
C        -0.74089747765845    1.65364430681063    0.27630577387259
B         1.58435242910567    1.00179562190965    2.46492669394454
B         2.87531155481950    1.42870664708965    3.52582073175117
H        -1.29004054139363    0.20568897520735    1.86054251843745
H        -0.51135930708921    1.02739079746497   -0.56507387767222
H         1.12879998900771   -0.07296277350114    2.42465276304399
H         2.92461586042279    0.84706319734926    2.38243532913414
H         3.31486454787231    0.75092326076504    4.38371109974060

