71
CSD_code = PAHDOR | q = 0 | S = 0 | Stoichiometry = C22H42F2Si4Ti | MND = 12
Ti        2.44639389423272    4.52327340601387    9.29246563770872
F         3.62884928532891    5.01916564487650    8.08849995545865
Si        0.25192283829711    2.12742914456910   11.32141612086154
Si        4.18603617833722    2.12347725082624    7.03848130825175
C         1.06751279151569    2.62689588386534    9.70349357486475
C         2.33275126265461    2.13530296273921    9.30063388299142
C         2.60439293735543    2.53071005191591    7.97661780283852
C         1.47128926347598    3.26788596751782    7.53487702716892
C         0.52830786344591    3.29917593190297    8.57259681849189
C         1.48935405535806    2.40707311597887   12.75816821564355
C        -1.37200076062846    3.08410476963745   11.65651128160341
C        -0.18230549302485    0.26669507265541   11.20758615756534
C         4.13498126430841    0.27556299860780    6.54179132303417
C         5.66488213986699    2.43475837081611    8.21014065179310
C         4.31224032419117    3.19082979132160    5.45762869733980
H         2.98073582145609    1.51659305795224    9.90843569721468
H         1.31976452725673    3.62578107445026    6.52510088161240
H        -0.49105188246786    3.64706036330889    8.48413014272649
H         1.02532927106552    2.90202648205057   13.60642766985379
H         2.33109424049247    3.01641918136656   12.43477757214586
H         1.89068880357098    1.46387856461344   13.11681749927405
H        -1.93531855662795    2.59117484377428   12.44277537908745
H        -1.19320251552947    4.10521955915902   11.97880398933841
H        -2.00908354326986    3.11576124940998   10.77759401918872
H         0.69372685047183   -0.33173211977041   10.97700485583085
H        -0.91925530478356    0.07722805697668   10.43308917859275
H        -0.59156045526137   -0.09449719833705   12.14589107696201
H         3.31550427317749    0.06739227022977    5.86185055738897
H         5.05528367913613   -0.00876239062273    6.04347702683027
H         4.01540825326597   -0.36919951493879    7.40626804913609
H         5.50581427247404    3.35409690914003    8.77137553541236
H         6.60159542986445    2.52816599247155    7.66919452857474
H         5.77907615769240    1.62697970819957    8.92773537409878
H         4.34221303798039    4.24648464980888    5.70863865608052
H         5.21409895472697    2.95575642810467    4.90110955782749
H         3.46795403653258    3.02620044011330    4.79444138070762
F         3.62890535124142    4.02753433068203   10.49648299161069
C         1.06759843597115    6.41950615605009    8.88155949471028
C         2.33287157333150    6.91111236778038    9.28433390456235
C         2.60445816163853    6.51591021344390   10.60841304676511
C         1.47138018520747    5.77876720071336   11.05023973810333
C         0.52838958926588    5.74738892627841   10.01256372325716
Si        0.25205395727898    6.91902752740240    7.26364354282913
H         2.98078352709205    7.52985313997801    8.67648162450515
Si        4.18612297715851    6.92305754713458   11.54653311434650
H         1.31997620854720    5.42085575117938   12.06002309901746
H        -0.49096517999605    5.39951302371086   10.10107527934145
C         1.48936970880885    6.63918196807725    5.82683769802667
C        -1.37204930825503    5.96256947317989    6.92865278540448
C        -0.18211934604432    8.77979673072393    7.37726638115180
C         4.13509543750507    8.77100170828221   12.04309041933044
C         5.66487376395344    6.61154441780116   10.37481146579787
C         4.31196102522359    5.85584525604587   13.12750774393718
H         1.02579946485450    6.14058102139330    4.98003948410906
H         2.33286922865985    6.03264474327702    6.15151796024378
H         1.88807714198957    7.58271959158317    5.46530554596810
H        -1.93531221980183    6.45547680864079    6.14234157306301
H        -1.19325765349680    4.94146269184385    6.60636678493516
H        -2.00921042407030    5.93089850905974    7.80750531067774
H         0.69398416028518    9.37816866719611    7.60768575333428
H        -0.91901351631368    8.96958175124526    8.15176024695327
H        -0.59135470299171    9.14092014837459    6.43893134539072
H         3.31556621429514    8.97918561010596   12.72296843955301
H         5.05536448188892    9.05532739003920   12.54146475892629
H         4.01558380992794    9.41572935913745   11.17857672879259
H         5.50569926589050    5.69216946786832    9.81366093983524
H         6.60164914133066    6.51813473604865   10.91563818534066
H         5.77902204186080    7.41924591106973    9.65712818277751
H         4.34168520109265    4.80014147583897   12.87666979276777
H         5.21379515973179    6.09076782328700   13.68412584347345
H         3.46762394100094    6.02081058482424   13.79054998766006

