118
CSD_code = PAHDEJ | q = 0 | S = 0 | Stoichiometry = C41H52B20P2PtSe2 | MND = 4
Pt       12.79379207838872   16.47075472274561   12.04764906007110
Se       13.49509869444372   18.56627587156192   10.95303155883362
Se       14.99252813270577   15.72487856566131   11.38148998689292
P        10.49819907280915   17.14532194584107   12.33843996931111
P        11.62008460728918   14.66220362830040   13.03581749803228
C        10.19059590233607   15.75770970526364   13.52471492432627
H         9.20331945385139   15.29597120750891   13.45935153181760
H        10.35174001521959   16.11535903680211   14.54445045882456
C        13.88061392081835   19.55455602265460   12.61486765800803
C        15.27575934149258   20.36630760371867   12.73209129390841
C        16.22467895802336   20.34466449750157   11.58241898148492
C        16.56418222137522   21.53018765194746   10.92995901604361
H        16.12601245524329   22.46299649811981   11.24729055006125
C        17.45340770947608   21.53624600614757    9.87204576901087
H        17.69908623687141   22.47108294308081    9.38949448203642
C        18.01990760497320   20.35465925665742    9.42587361896280
H        18.71132483024962   20.35960802477667    8.59636036031407
C        17.68135674504438   19.16924744036024   10.05106564004982
H        18.10028454538369   18.23422396517958    9.71054761684749
C        16.79874607223942   19.16417796691792   11.11571831143603
H        16.56189449619364   18.21750714999240   11.57108822290533
C        15.56505521260325   14.04870185186101   12.23045532091874
C        16.79255104163052   14.15351727260624   13.29726806949034
C        17.37825502475732   15.47244656048650   13.67322230809552
C        18.20968768577110   16.19035162037351   12.81543369746199
H        18.40463925678887   15.82944694805414   11.81913038914819
C        18.80810244907721   17.37115819897019   13.21783418398783
H        19.44488615781721   17.90451105765204   12.52775126293360
C        18.59669617632485   17.86410506403531   14.49190533760693
H        19.07548316767707   18.77678542251085   14.81092659706771
C        17.76008736614188   17.17445302912897   15.35181606720789
H        17.57111728833491   17.55594041474204   16.34326290810414
C        17.15673696425432   15.99900471180434   14.94675267012266
H        16.50856472504969   15.48204912361575   15.63625787743331
C         9.41749851501056   18.48076030708754   12.94091606385440
C         9.41977482203001   18.82797519796148   14.28905607683760
H        10.02879470682481   18.27793295468494   14.99104931469555
C         8.66390223679612   19.89554388967547   14.73337114667384
H         8.66966746864266   20.15702252288980   15.78056603607535
C         7.91256337959552   20.63673613240173   13.83592278868582
H         7.32516138200783   21.47273925380055   14.18393025889949
C         7.92939097221462   20.31368671018955   12.48903102455863
H         7.35776565622171   20.89938863795244   11.78444070504720
C         8.68495278616775   19.24712589203195   12.03921329015732
H         8.71048505563388   19.00498174236497   10.98599098843579
C         9.61112585111088   16.56845151246597   10.85554792927367
C        10.30302054008657   16.52520323633838    9.65133106391517
H        11.33510675707866   16.86075602845415    9.61676847853717
C         9.68059237326650   16.06095805257517    8.50672088466330
H        10.22216017517453   16.03078539929259    7.57357340848328
C         8.36525261654271   15.63363611961914    8.56263795679877
H         7.87851773311727   15.26408494962513    7.67251955382303
C         7.66735826184938   15.68466593606931    9.75931680672898
H         6.63863205215516   15.35769052220495    9.79894195787023
C         8.28368635527253   16.15633172132444   10.90225310447260
H         7.73303651256197   16.21396773334282   11.83157297386137
C        11.67913438650072   13.55165554276476   14.48355147246753
C        11.48886518858448   12.17842034839899   14.40329703533374
H        11.29308714753033   11.71259139858032   13.44917116986104
C        11.56274053202453   11.40391669307166   15.54701414091553
H        11.40892469436621   10.33758917997743   15.47964643513958
C        11.84541651746984   11.98784048210153   16.77025201983664
H        11.90748424800569   11.37790076586077   17.65863483321579
C        12.06517624809174   13.35338253807294   16.85045471744355
H        12.30303473232191   13.80982855427442   17.79956022198350
C        11.98583903008891   14.13110988151496   15.71152134195925
H        12.17643374113201   15.19528088840965   15.76953315908726
C        10.82956667367077   13.69929988072538   11.70863226497447
C         9.62428575851371   13.03038661516963   11.89084816163870
H         9.14711956737522   13.02678067593221   12.86173958729739
C         9.03767851221161   12.36395250681210   10.83135809572493
H         8.10012960444586   11.84714191287038   10.97551732863121
C         9.64909603629375   12.35726009143846    9.58781947106614
H         9.18586027195771   11.83507987880777    8.76412194673205
C        10.85096729694944   13.01872109061640    9.40225283807916
H        11.32906182955403   13.01456962661049    8.43468912331361
C        11.43732166567403   13.68962967738005   10.45901704778576
H        12.37389024726380   14.21739792106802   10.31878448532804
B        14.59537562009935   19.49797874602491   15.30034082524061
H        14.86989863819719   18.86238713801368   16.25203802960066
B        13.36974586052056   18.96232481018318   14.14340292073497
H        12.79621260899379   17.92022658364947   14.16717045356799
B        13.04577225640315   20.38339775476907   15.13548825045780
H        12.22311681014282   20.36528160469410   15.97855863520835
B        12.60520397523882   20.37134518354617   13.41692801744613
H        11.53394054320516   20.27673850156626   12.93807911432843
B        15.82117069457391   20.38979057917825   14.36114171495015
H        16.98308281818118   20.39131822814574   14.53279292492496
B        15.06373137420767   18.95595824996537   13.69921408622626
H        15.63123428097165   17.97610718518108   13.41027247300835
B        14.57937598117799   21.27869245027256   15.28264249076027
H        14.86035646615310   21.90966834138976   16.23524850796233
B        15.04652447529245   21.80793380330973   13.66079869014317
H        15.70356760969665   22.74901503435095   13.41100737917724
B        13.82395126505925   21.26403067679825   12.52206479479242
H        13.63622588286348   21.71077443713889   11.45160572776672
B        13.33220327079742   21.82409771107181   14.12125180558294
H        12.72620338043630   22.82390216942218   14.25052117774428
B        14.51583192477622   12.77137302363013   12.62676210424730
H        13.37030154269165   12.92186221850710   12.37466702978844
B        16.79508877003160   11.38770948770506   13.64401348824541
H        17.25769581877601   10.44316731669886   14.17160593045855
B        15.18036283244538   12.02464121441664   14.08721804717475
H        14.49170432365639   11.53913887257705   14.91068510288514
B        15.45083961077161   11.27711527972020   12.48461161962567
H        14.93653641156183   10.26307023315295   12.17953064200670
B        15.22987314424135   13.77429136182230   13.87885321702821
H        14.63355495291066   14.62832742740221   14.42913875077006
B        17.08040484308689   11.73688178591908   11.91673651401301
H        17.73869415310563   11.05320770541242   11.22233293960477
B        16.64650001188937   12.92784470877553   14.49928207158441
H        17.04217512975793   13.17245786234275   15.57863455800535
B        17.09291519325780   13.48510259602832   11.72762510314219
H        17.66181800679500   14.13030649278325   10.93019754159882
B        17.80522476799323   12.77806810399720   13.17119884580474
H        18.95037672786906   12.94481601303973   13.38079051015512
B        15.64855892299926   12.59009919137126   11.30839498544049
H        15.26231334918079   12.64347832674141   10.19878106995924

