28
CSD_code = PAHHOV | q = 1 | S = 0 | Stoichiometry = C8H11AuClN4O3(1+) | MND = 4
Au        3.32336785714224    1.37474256132789    0.98688171037268
Cl        4.92922275135703    1.22399494253560    2.57816982790586
O        -0.41657768841941    0.88935144156769   -0.34432310488277
O         3.31329275298710   -0.61468732314859   -0.70314195927635
O         2.67661484443882   -0.73831172498104   -2.83721955174772
N         1.90294931529296    0.77170311445738    2.30742154548674
N         1.76900400418026    1.49332154207540   -0.22899814393435
N         4.58773308440683    2.02431753442190   -0.37946020129361
N         6.44287406712223    2.53928200091118   -1.38350119072274
C         0.58932168002980    1.25253486604355    1.83066185576836
C         0.55965691151604    1.16843315965473    0.29992871868064
C         2.02379422244272    1.19314779480746   -1.61191456904888
C         2.90235881639530    2.27816331324353   -2.24939551016951
C         4.28333018063350    2.30616582261846   -1.68796430405466
C         5.45326258029906    2.62887015762129   -2.31653722681469
C         5.89822381550715    2.17052627372368   -0.22980621911564
C         2.73686013436762   -0.15816911977178   -1.66869527037189
H         2.08635181920152    1.08098267535699    3.26516154810286
H         1.90395458640792   -0.25115542463379    2.33352902537503
H         0.45769642835963    2.29882830292570    2.11680241858229
H        -0.23648515999655    0.66825771529524    2.24310039886395
H         1.07118329996670    1.12070724443184   -2.14877177288387
H         2.41924888310109    3.24332390621810   -2.07162659032517
H         2.95894995487688    2.11945355371594   -3.32651417573217
H         5.63468250481869    2.91277724283277   -3.33265578572040
H         7.42447368919268    2.72071170927647   -1.54355932945335
H         6.42365146396520    2.01049011394565    0.69193995735550
H         3.11420320040828   -1.60886339647176   -2.85351210094625

