24
CSD_code = PAHNUJ | q = 0 | S = 0 | Stoichiometry = C5H12Cl2N2OPtS | MND = 4
Pt        3.61542227370331    1.45650204676898    3.02814285645941
Cl        5.51872273241557    2.69139923693367    3.31128903826690
Cl        1.67187170828163    0.25484072793275    2.75570857205047
S         2.42799706321253    3.16466457527491    3.82989470702940
O         1.94621391351505    4.05766236342052    2.79928413901324
N         4.57621115401879   -0.02745779322147    2.28344911700372
N         5.19441456582221   -1.88186569267873    0.81168716229472
C         4.86035582964275   -0.88731528847640    1.55654409157904
C         6.51383949054108   -1.98559844059033    0.22953691017856
H         7.12223744867249   -1.13969529919529    0.54121550586928
H         6.44255036434424   -1.99185527980377   -0.86079802087437
H         6.99323120439841   -2.91105435128597    0.55727872122136
C         4.22614546500407   -2.91322698683126    0.50227354160236
H         3.27831205225738   -2.68011145658808    0.98261332179396
H         4.58391520798444   -3.88037710239427    0.86268666978022
H         4.07474464208814   -2.96999255450380   -0.57799919471687
C         3.27239303364183    4.17767068417471    5.08068736626381
H         4.15850969002908    4.60386570393284    4.62250686198929
H         3.55617664094967    3.53358022071462    5.90520296912696
H         2.59454641126481    4.96176457180080    5.39794904203967
C         0.99729093940501    2.66682505048498    4.83577551580980
H         0.49048671526801    3.56173252049538    5.17814210732652
H         1.35738709367460    2.06805387347016    5.66490540599865
H         0.33842435986566    2.07488867016786    4.20912359289508

