55
CSD_code = PAHPOE | q = 0 | S = 0 | Stoichiometry = C18H26N4O4S2Zn | MND = 4
Zn       -0.26541529017399   -6.53398030595564   13.69961127625194
N         0.30741335794808   -7.49425805098967   15.69280029316022
H        -0.61889924964100   -7.88067987518743   15.86271133550768
H         0.99178132448579   -8.23489180373075   15.79565033209002
C         0.56709755521687   -6.40536320098580   16.62872854691873
H         1.58947554380755   -6.05797487184367   16.46268234721079
H         0.45620297875611   -6.71562871129020   17.67601167791690
C        -0.40359266659872   -5.25533760915262   16.33415259619344
H        -1.40801846274422   -5.51394324404077   16.69162862886720
H        -0.06524727827522   -4.35123467033181   16.86048737476087
N        -0.45466612309662   -5.02328495257866   14.91378736910770
S        -1.89326409718791   -4.65072221024988   14.30402201334934
O        -3.01562738960795   -4.97011371784081   15.14040888114226
O        -1.84587528958798   -5.16965684487058   12.94036770995299
C        -1.87885645351778   -2.86349980912595   14.09913641468317
C        -3.05244795827905   -2.14085667785336   14.18137748490007
H        -3.96713326094285   -2.66607153476600   14.40538927246771
C        -3.02861767101092   -0.76961899834850   13.98717916699063
H        -3.94585662636780   -0.20228664422995   14.05259963093178
C        -1.83520968861600   -0.11363514510092   13.70989606448902
C        -0.66165574845729   -0.85877239979171   13.63378565602454
H         0.27234570852157   -0.35647673708596   13.42451653170777
C        -0.68185148502548   -2.22828376888080   13.82670245938202
H         0.21773128548314   -2.82327169316087   13.78949657906373
C        -1.80507390739087    1.36713925253666   13.47997632161623
H        -2.70533019675582    1.83937059283322   13.86405013507936
H        -1.73949133165989    1.57664898068215   12.41215730510591
H        -0.93804929715517    1.81464235758354   13.96116343631004
N         0.74636919205232   -5.62285729606333   11.87579997668295
H         0.43848846621123   -4.65933516445203   11.81318262643283
H         1.75751168376075   -5.65795170636144   11.78448661308884
C         0.11463363144063   -6.41615606813538   10.81793487370076
H         0.56405316721322   -6.22500498529513    9.83480029541511
H        -0.94527721419119   -6.16023171556370   10.80238264017927
C         0.22348863959550   -7.90354092176593   11.18227717938833
H        -0.41024199697955   -8.48582796249397   10.50757271187476
H         1.26210663421574   -8.24227866081857   11.08858928127115
N        -0.19337633304712   -8.10131160101444   12.54642481727221
S        -1.76184480313395   -8.38983702645882   12.76344020367878
O        -2.04972999161429   -7.81404705276839   14.07399692401885
O        -2.60478658728203   -8.06539029586854   11.64660957239879
C        -1.88809015752875  -10.16646093687922   13.01754240608377
C        -0.87011736806476  -10.82039288575539   13.68332201934301
H        -0.00993056682853  -10.24750165361376   13.99232482385694
C        -0.96835561640744  -12.18108073547205   13.91962683707053
H        -0.17218617281624  -12.69588581243235   14.43867873449635
C        -2.08278761823480  -12.89529096527768   13.49435165271550
C        -3.09680195170744  -12.21947722930262   12.82210436417342
H        -3.96566583879230  -12.76662109642175   12.48552582373815
C        -3.00190950131223  -10.85988581579181   12.58380660764981
H        -3.77469118332062  -10.31914740802931   12.06103204195746
C        -2.19592558646493  -14.36989745846545   13.73749910524283
H        -1.39773713571659  -14.72182628235773   14.38560605122643
H        -2.13801097637173  -14.91100706293706   12.79357465006115
H        -3.15305309679297  -14.60821190645578   14.19763032579877

