95
CSD_code = PAHQOG | q = 0 | S = 0 | Stoichiometry = C42H49HfN3 | MND = 5
Hf        3.86821503113210   -3.98110538766997    7.20517391367668
N         2.35489941914299   -5.10509164965325    8.46495093756847
N         4.44169079347043   -3.98288948642527    9.39462397340451
N         5.51652353108603   -3.11476894370564    9.75074349776056
C         2.59998006381065   -5.36713362739858    9.74181238549252
C         1.63040803157216   -6.01628086095789   10.53849360457785
H         0.68677849547025   -6.15890928670671   10.02423564161811
C         1.66861600832248   -6.51788725307597   11.81943124292169
H         0.75321177838230   -6.99294958385685   12.15282997717129
C         2.71838674618277   -6.53182524024795   12.72537814521342
H         2.55191665221592   -7.04954527200335   13.66004859587366
C         3.94649049489127   -5.91778841496752   12.55931844762196
H         4.63813408056558   -6.02482745961964   13.38742325811267
C         4.41077431449075   -5.14212073318573   11.51578359046345
H         5.38901462583631   -4.72543787920214   11.69734099231057
C         3.86763500494659   -4.82291409135057   10.25790905885959
C         1.07199171994916   -5.38254348375615    7.93574619334364
C         0.09949156625491   -4.36972057027105    7.98210345256470
C        -1.17318604137098   -4.64279556789201    7.50336534549316
H        -1.93755739614747   -3.88298550284352    7.55040816262325
C        -1.48128599171379   -5.88192750394892    6.97388153264268
H        -2.48085042358606   -6.08472822223278    6.61965257604636
C        -0.50427460463059   -6.85537611315567    6.88406883603741
H        -0.74968442969105   -7.81166532474037    6.45006016318651
C         0.78225099277432   -6.62305343870392    7.34843417552369
C         0.43771423321801   -3.01230314608853    8.55976316819198
H         1.53615116885160   -2.91622865116114    8.58568311827996
C        -0.09168367067544   -2.89593071929771    9.99286814720027
H         0.14178619096427   -1.91539284886440   10.40253420108117
H         0.35700432632102   -3.65277639719191   10.63278143545118
H        -1.17157471743023   -3.02854678070553   10.00916966702432
C        -0.10811710684075   -1.87125735593769    7.69902911543683
H         0.30046242250544   -0.92258896639423    8.04016794735623
H        -1.19157700136112   -1.81034018183225    7.76239060377153
H         0.17190881323374   -2.01322505522983    6.65795159642220
C         1.85925475572175   -7.67399889858677    7.21382268411987
H         2.83278737415620   -7.17536152731889    7.32051401035025
C         1.73609296170975   -8.72775998318614    8.31767033798032
H         1.85901729720213   -8.27642479971427    9.29945289579294
H         2.50423214810878   -9.48637128946365    8.18944735121763
H         0.76047853059171   -9.20842988790910    8.27649370806509
C         1.82221945290826   -8.34990784584381    5.84188289664174
H         1.75930613113334   -7.60894236906397    5.04891268500402
H         0.97274684209246   -9.02307102912578    5.75654530851213
H         2.72976530936535   -8.93080258720306    5.70005392941522
C         5.12846269200867   -2.09451150368863   10.70932713994122
H         4.15471387856765   -1.69645640502380   10.42629132935151
H         5.86345988674308   -1.29074114099449   10.66275548176181
H         5.06763490504158   -2.45490350935719   11.74595728391016
C         6.81815344290657   -3.69893627940891   10.05998980982685
H         6.88523914889574   -4.71212695647668    9.66947867649058
H         7.04902827718016   -3.71836676547396   11.13280431941019
H         7.58517089421151   -3.09124362100551    9.57182472545050
C         3.63330383463328   -1.76369429313672    7.09645475475553
H         2.72638172763502   -1.38823277782004    6.61081711941291
H         3.70191096672648   -1.36036101003808    8.11389339101604
C         4.82939822491939   -1.39699926470033    6.31832663279608
C         6.10831010347656   -1.52625314045589    6.88461379473472
H         6.18775046282578   -1.84739355995956    7.91536460841820
C         7.24340173029469   -1.21703902234111    6.16197029625621
H         8.21771201617873   -1.32208240542036    6.61979191230845
C         7.14364282231123   -0.76794037858802    4.85378772959431
H         8.03292623025018   -0.52951401508513    4.28935112621442
C         5.88990509568893   -0.61160868386767    4.28716349942744
H         5.79638149613229   -0.24214386443994    3.27622727040802
C         4.75058660310351   -0.91221685689736    5.00853403926859
H         3.78117833619445   -0.76295490586594    4.55656367721232
C         2.79175725328668   -4.63835681055827    5.35278506739285
H         3.23869299521632   -5.60390202607134    5.08260091429488
H         1.72814998831735   -4.79165656497396    5.56666814677019
C         2.92812568718643   -3.69136580541973    4.23748942352371
C         4.05086299392059   -3.69393784898476    3.40003650333937
H         4.84468292222989   -4.40486757182687    3.58584149690205
C         4.15289377173585   -2.82648409608266    2.33187696014062
H         5.02826196400390   -2.85766097143806    1.69848717946828
C         3.13720159121905   -1.92376313815035    2.05979149828736
H         3.21403308627651   -1.24944261274061    1.21973059544122
C         2.01637258274981   -1.90238094714488    2.87472269611972
H         1.21323997341710   -1.20784122292763    2.66822159813371
C         1.91275670199471   -2.77264089287695    3.94150756019648
H         1.01983395664097   -2.76374747216444    4.55489273602235
C         5.87474678735539   -4.79472633969706    6.63581813760650
H         6.22728786424627   -4.47286848607534    5.65064763589537
H         6.58789820873778   -4.46491515741674    7.39546120536396
C         5.66818285399823   -6.24558306033816    6.68858579841016
C         5.55164988369623   -6.92493696530208    7.91489252082180
H         5.63067829040253   -6.37074292557076    8.84258733864573
C         5.36774626846944   -8.29201016673582    7.97030475066729
H         5.28933015058145   -8.78101711897690    8.93162513161998
C         5.29235530181336   -9.03937042131890    6.80535620426738
H         5.16093705964881  -10.11044567406114    6.84976291924966
C         5.40243324168913   -8.39396818794704    5.58312580772262
H         5.35768011286790   -8.96598000674174    4.66667531433807
C         5.58692472592011   -7.02764067283904    5.52478565527398
H         5.69648508131454   -6.54859525783612    4.56107807871777

