32
CSD_code = PAHTEA | q = 0 | S = 0 | Stoichiometry = C12H12Cl3N3OPt | MND = 4
N         6.88378464870634    2.38938170317553    9.12562114581706
Cl        3.96795717735753    1.49167149596033    9.29228779223754
C         8.10459866349349    2.77767657679374    9.11824979626052
O         6.41886104075849    1.98512019827660    7.89755479463561
H         5.46387068184226    1.71665520098235    8.06046874445398
C         8.87055727617925    2.75609657970101    7.83214879883504
H         8.87695852905711    1.74311321094537    7.43085942418503
H         9.88879089624895    3.10734080694772    7.96071758680524
H         8.35702539067311    3.37369291499875    7.09571311813228
Cl        4.14118759328443    2.21736659771988   12.42378728124968
N         6.96649199663144    3.00450858242666   11.89675607370594
Cl        8.04650915730198    4.93218694098865   19.63739342690301
N         6.73954441523373    3.20261277564433   13.19249829239760
H         5.78397581311009    2.96906766015768   13.50186986072893
C         8.87635852215931    3.26909385802573   10.30558075899769
H         9.76526067790355    2.63253328647888   10.39468401995091
H         9.24694102074907    4.27018920496187   10.05278412956913
C         8.22520094683905    3.34268280536630   11.64651919233430
C         8.81926097791358    3.77304412774988   12.83761755724468
H         9.82776715802630    4.11014942502372   12.95521623606060
C         7.83658805149955    3.67166610782449   13.81883510472001
C         7.88064550931285    3.97685159990606   15.23646483287274
C         9.05644565956103    4.45324322147802   15.81997283161031
H         9.93735447476548    4.59528914383693   15.21481308168214
C         9.11157592512814    4.74670521187451   17.16733128814897
H        10.02377172046830    5.11375850829639   17.61069287516999
C         7.98285515952165    4.56633407554960   17.95345834114347
C         6.80408842462872    4.09389251572479   17.39458202079981
H         5.93144657121758    3.95637066614167   18.01321608556457
C         6.75528455327394    3.80179092019417   16.04625249051108
H         5.83211559394794    3.43500185096035   15.62584054471292
Pt        5.57492577320567    2.30001222588807   10.66961247255924

