43
CSD_code = PAHWIE | q = 0 | S = 0 | Stoichiometry = C20H14CdN6S2 | MND = 6
Cd        1.80160376650990    4.91014232868089    5.03078797556239
S         4.21383855367025    4.25792800363083    4.52677793689100
S         0.44790256085403    4.54936491544819    7.16101183987036
N        -0.35138036751838    5.20747625647419    3.81494410962188
N         1.93652514553003    6.51640955711042    3.12755528076037
N         2.10184856135452    2.83547045920982    3.97133267279272
N         1.76828363140690    6.70959004033111    6.54234858332002
N         4.20104318907738    1.92131260060388    3.33863274814565
N         0.59961862870947    6.72791635052501    8.61051228805983
C        -1.44927349739725    4.57928090709715    4.16583944713420
C        -2.66853086433478    4.74585326587374    3.49689094671132
C        -2.72541007552417    5.60330070761332    2.42587551367413
C        -1.56396436843371    6.29072199672231    2.03298126450047
C        -1.53978100785985    7.19751249773181    0.93464000594609
C        -0.40009917055811    7.84060810127998    0.58671945078908
C         0.80902076018845    7.63346124807837    1.31082559993770
C         2.01227428444257    8.28183316410887    0.98268929426903
C         3.13697701925790    8.02811355426241    1.72847011451343
C         3.04970402104093    7.13000690048566    2.79979058299041
C         0.82670313717380    6.74384540410873    2.41014429001203
C        -0.38384512517113    6.05421162152871    2.77566667491554
C         3.45698092789073    2.88468099732301    3.88960998425436
C         1.49904807332371    1.75592805044154    3.50429099241778
C         2.20123530919879    0.70455188523232    2.93715589268228
C         3.58454513657077    0.85904549643724    2.87821473967151
C         0.97532040377703    6.12576764116215    7.47836037119204
C         1.04553342534061    7.94051104950528    8.83648019759657
C         1.87929322931429    8.61575258773793    7.94765746408323
C         2.20837948319633    7.93139389133346    6.78863350711718
H        -1.36674126435202    3.92241757396561    5.02377500716948
H        -3.54171564270760    4.20619916998556    3.82783725705660
H        -3.64576047880261    5.76123951712641    1.88167731504001
H        -2.45638024928541    7.35712759745327    0.38578577933625
H        -0.38283798470283    8.52632851854368   -0.24776678672197
H         2.03542938810326    8.96780976434584    0.14778633109818
H         4.07745730041038    8.50464359180802    1.50123337102130
H         3.91791547318012    6.89283724249593    3.40331015019996
H         0.41754712677230    1.73970615436100    3.58909814571692
H         1.70596222292379   -0.17545751484678    2.56387713850215
H         4.22292491924552    0.09951717339557    2.44359749431523
H         0.72258129037942    8.39187167014341    9.76669450959122
H         2.24522006522284    9.60858378509863    8.14632221255765
H         2.84450306258484    8.37108427606129    6.02763230567204

