63
CSD_code = PAJCAE | q = 0 | S = 0 | Stoichiometry = C24H34ClPSi2Zr | MND = 13
Zr       -3.96698534867470    0.27856543539160   14.06280335831321
Cl       -2.98624595658144    0.87074366086333   16.17904696148106
P        -5.91940045918675   -0.36115175943756   16.12686790051005
Si       -7.07367255156090   -2.05005665564272   17.09425215015203
Si       -6.47506514664789    1.55488226794992   17.21234793099673
C        -4.36681198221703   -2.17200081915368   13.48071741299387
C        -3.81625602838348   -2.26622084395472   14.77696007263398
C        -2.49287704584381   -1.79942159011361   14.72779910473742
C        -2.20973525012451   -1.41923309890364   13.40351605846483
C        -3.36906696578580   -1.65096003635240   12.62399923536569
C        -3.82861611424475    1.61251752448456   11.79178470461653
C        -2.51065464916629    1.22098872882310   12.07407043770831
C        -2.11231384520241    1.84159247390931   13.27454978069618
C        -3.17791552160637    2.65639688655770   13.71424115190660
C        -4.24589315613871    2.50580976007837   12.80474703248131
C        -6.15021182529709    0.27708164808789   13.55702851106262
C        -6.89162463770503   -0.07667379905377   14.62018948890941
C        -6.82622132070951    0.60041885284075   12.29374818964432
C        -7.71257507775462    1.67793255245805   12.21896504609345
C        -8.32534275696375    2.00879611047139   11.02532344318526
C        -8.08086556415008    1.26193099707851    9.88493791275876
C        -7.21677294613383    0.17995836130321    9.94765380236434
C        -6.58881653798491   -0.14376099693251   11.13493531500881
C        -7.36100125125113   -3.36935765887535   15.73709823819417
C        -8.77752912820825   -1.59970629167727   17.84107406204457
C        -5.94051926170760   -2.71549280586785   18.47865750661083
C        -5.68445243980661    2.89517790516376   16.10614345183296
C        -5.69230004702869    1.48609862232693   18.94763442885527
C        -8.35217651344350    1.93585173495649   17.30553985819731
H        -5.32483937138175   -2.57302800184006   13.17354301454683
H        -4.28049603746756   -2.73772030187990   15.63185523427781
H        -1.78561894075464   -1.81763128217268   15.54651166920594
H        -1.22776130110872   -1.15557638043061   13.02844795768438
H        -3.42819967076850   -1.59514592138540   11.54278683347314
H        -4.37784512098728    1.38771512022209   10.88796743960750
H        -1.87328290826365    0.64757781960481   11.41434014130223
H        -1.12217034221488    1.81082385255737   13.71496519504392
H        -3.12634134531306    3.36707041622166   14.52914486511503
H        -5.15102910952446    3.10086142364178   12.77621515272766
H        -7.97803271477585   -0.20021553349325   14.62177866504010
H        -7.90700798557969    2.25968487575809   13.11119530996332
H        -9.00193354220196    2.85059187920516   10.98441835754135
H        -8.56160756738201    1.51955093481564    8.95302133845025
H        -7.02875563202997   -0.41084802467835    9.06222755283408
H        -5.91385690544314   -0.99000143182419   11.18014982822318
H        -6.42967936563244   -3.82441888978071   15.41497423159185
H        -8.01024923431954   -4.16500127068918   16.08999541292223
H        -7.82715455570726   -2.92708689681262   14.86102342857666
H        -8.66907840982981   -0.95855111850876   18.70975134224134
H        -9.40859722507655   -1.08647467618734   17.12298997211930
H        -9.30220165069157   -2.49577133777031   18.15811263981260
H        -4.92185172924460   -2.84605683665716   18.12616517906399
H        -5.90577480137189   -2.02420005915566   19.31469219560382
H        -6.28864179982770   -3.67188277443123   18.85504141809810
H        -5.70794242318688    2.55962330022296   15.06423323509849
H        -6.19372353749566    3.85246179970068   16.16947170662866
H        -4.64720293841828    3.05074178660302   16.38759995374296
H        -6.17493583578573    0.74426364550353   19.57599814966562
H        -4.64159543609463    1.22635437827949   18.86570028714620
H        -5.76343438803478    2.44481508401208   19.44994679310053
H        -8.85045059438755    1.33579052284660   18.05777155464568
H        -8.51413402931775    2.97858967530696   17.55979062289716
H        -8.84095422091315    1.74998705652125   16.35424077421730

