34
CSD_code = PAJDOV | q = 0 | S = 0 | Stoichiometry = C15H13AuClN2PS | MND = 2
Au       -0.86038051722410    6.87936308868377   12.17774854938637
P        -1.98038618573594    7.85447095560814   13.85562166852459
Cl        0.20349811953008    5.80611119232189   10.49066545209351
N        -3.62825863414426    7.84558360701526   13.68375631856409
N        -5.58097478238268    6.73541922002735   13.11503883393137
H        -6.13572490296311    7.57441700421655   13.18669969577669
C        -4.24941991959409    6.77104225583312   13.34563855873835
C        -6.08965589393243    5.51190025111089   12.75288928931026
H        -7.13811918412503    5.41760001387754   12.54148499323943
C        -5.16520900101333    4.54468811917877   12.70843851382242
H        -5.28905976658738    3.51357120295662   12.45342225088018
C        -1.67298713878498    9.59994845854481   14.18255398386564
C        -2.61851847316189   10.58388094267509   13.92833640288812
H        -3.59447102529922   10.29631361832243   13.56683247692460
C        -2.29708372713887   11.91170931659145   14.14798514413083
H        -3.03034986113036   12.68157988240036   13.95593852724669
C        -1.03676843862331   12.25635982364182   14.60821572062157
H        -0.79000567852655   13.29425937146262   14.77640440129415
C        -0.08691544578874   11.27414854715677   14.84714776116074
H         0.89708257287165   11.54698571799526   15.19904369740260
C        -0.40076883099432    9.94692024990739   14.62868068550611
H         0.32960531789962    9.16600901999605   14.80207528272995
C        -1.69829535165607    7.07625322425692   15.47500011658260
C        -0.93653848056842    5.91976008178012   15.56792399979466
H        -0.47948316720813    5.51126496880937   14.67509323800548
C        -0.76648454964406    5.30840828399277   16.79780295891852
H        -0.17224174695991    4.41007343187067   16.87443683420091
C        -1.35899698592782    5.84911876735262   17.92695199619551
H        -1.22490714188669    5.37090144914942   18.88589377522436
C        -2.12428046685192    7.00213437991043   17.83211912049833
H        -2.58420847636698    7.41986598932916   18.71574883735247
C        -2.29772271126680    7.61780996929672   16.60757376464986
H        -2.89181549362409    8.51683786759593   16.51251300191037
S        -3.58555403119439    5.15418972706442   13.12342414864212

