76
CSD_code = PAJJUH | q = 0 | S = 0 | Stoichiometry = C27H45NP2Zr | MND = 6
C         4.30194491806838   11.83644465880617    6.64683303845101
H         4.11678943961618   10.95305829331181    7.26953047180280
C         5.47008626669067   12.62153329332384    7.24870652445285
H         6.40595563478631   12.04428634716454    7.19482438397711
H         5.26540191509778   12.85935681306832    8.29293743559158
H         5.60512100070439   13.56012415186553    6.70988394936827
C         3.04562046196517   12.70152215873518    6.61911280317710
H         2.17505411400461   12.13499985095419    6.29769112380256
H         3.17923798394729   13.55068664293557    5.95158003765252
H         2.84300033598901   13.08595047441895    7.61816751139951
C         3.28259268588219   10.52020870870463    4.19931192930327
H         2.48221239460574   11.26557007576009    4.20853086530223
C         2.84552871512690    9.28864496207730    4.98703590105981
H         2.54757431232938    9.55241369716016    5.99982482324086
H         3.66663701036875    8.57310066692565    5.04303056090857
H         1.99991532169437    8.80491494160518    4.49976678659824
C         3.62294520420584   10.14271018927711    2.75948427167086
H         3.91578774032874   11.02154487270054    2.18730950840168
H         2.76818913240892    9.67958057907937    2.26859805204949
H         4.45376859333835    9.43512852579192    2.75193260387787
C         5.13573584166671   12.77709896013776    4.13101261766906
C         4.14812380027160   13.55167362812661    3.53998358119109
H         3.13310521475193   13.18414263926891    3.49146552374971
C         4.43825621911675   14.79287604175465    3.00321962103566
H         3.66088416095147   15.38580829311629    2.54592754804051
C         5.74103771620071   15.26815010443976    3.07224699247436
H         5.97874333831576   16.24313100819488    2.66989348920945
C         6.74143260506755   14.51115615683757    3.63579735680488
H         7.75000520319078   14.89992584649286    3.66438262264853
C         6.48553708291544   13.22729555589553    4.16666556847365
C         8.76433083742737   12.84292691004100    4.71290968092792
C         9.15960349885284   13.91084789412393    5.52509124988483
H         8.41749851134605   14.42048369701726    6.12620604170171
C        10.48250903969133   14.30757986288239    5.56035188317939
H        10.77641186824179   15.13206892009244    6.19419290643974
C        11.43210207545327   13.66408028708868    4.78175401452093
H        12.46055872451059   13.99331783629565    4.80029660774290
C        11.06248051028207   12.59557461141531    3.98023834388919
H        11.81211838859452   12.10698238526549    3.37395938579358
C         9.74350900303079   12.17050806875728    3.94652098946174
C         8.60891422282886   11.50674784509835    1.36082261770933
H         9.11739406486443   10.89677492611806    0.60572279856101
C         7.10032649061297   11.37347872791144    1.16009521932119
H         6.79237951567342   10.33326035833013    1.26673586246051
H         6.81147941610143   11.71986804369527    0.16840550996851
H         6.56494781652694   11.96768366903785    1.89924103449618
C         9.05998615092604   12.95120919720894    1.19234765268717
H        10.13250870620769   13.05041450842845    1.34594019229993
H         8.54685732688521   13.59861505074657    1.89864717763324
H         8.82448646362089   13.29444399813503    0.18527990784176
C        10.56617072351215    9.75210749683742    2.56217930642964
H        11.26379213830535   10.38083295862177    1.99500601947619
C        10.13715380756450    8.56598037691238    1.69963003625600
H         9.65178721464545    8.88147108869475    0.77844230118999
H         9.44168196300718    7.93847975176277    2.25457386611444
H        11.00328656066186    7.96228799584317    1.43154314494040
C        11.22828684804967    9.22545127004260    3.83264959554851
H        11.64091879435431   10.03142562044050    4.43442726894001
H        12.03690020667265    8.53875649913157    3.58315322752420
H        10.48987345123479    8.69158645706328    4.43738735649522
C         7.12967554531690    8.29924187196049    4.25493545906322
H         6.97277631898528    8.46654587421781    3.17644961584201
H         6.25643253691951    7.73820965496759    4.62134618527445
H         7.99753124086484    7.62717211882581    4.35619038331904
C         9.33186051618204   10.28148150012589    6.64369200467142
H         9.11505461225132   10.86165338041925    7.55991059540438
H        10.20426796819619   10.76213005279895    6.18309689939007
H         9.66016925647035    9.28499305879084    6.97808876679245
C         6.46812965164068    9.24591173762277    7.19162198204280
H         6.49789978891633    9.82349349779883    8.12664636009291
H         7.00746480956044    8.30735215378823    7.39177232724295
H         5.41930304151285    8.96621314322977    7.01936037451360
N         7.45315798791970   12.38710672327413    4.61586622600000
P         4.85735977148857   11.18429576197093    4.96199874936259
P         9.04003422623726   10.73822746914409    3.04113314427692
Zr        7.45110402432817   10.22318755004390    5.39895222389078

