49
CSD_code = PAJLOD | q = 0 | S = 0 | Stoichiometry = C24H21CrO2P | MND = 9
Cr       10.15852125419819    7.07944567847329    2.47228659221776
P         8.92419555006945    8.56367666652245    1.21640375008526
O         9.76836353749032    8.96708108283421    4.73642838575134
O        12.37102803239009    9.06282701770559    2.41994048490487
C         8.82333527967814    8.29348324665362   -0.63520059012733
H         8.52845216405980    9.22227131496406   -1.12879684576887
H         9.83418470157484    8.02281949879468   -0.95072650174731
C         7.85507776476227    7.20021750631980   -0.91430116030547
H         6.84575594103694    7.51161514737446   -1.14894264495934
C         8.13176936252384    5.90324283888764   -0.85591609264862
H         7.34602907795017    5.18823940561700   -1.06008702937289
C         9.47886333972231    5.33068780696075   -0.52235615282958
H         9.50271244175146    4.27492314479198   -0.81806908960102
H        10.25410135586864    5.84557893653232   -1.09964987813791
C         9.82856232391536    5.41705374172759    0.94653789108230
C         8.80974182712346    5.36264997304088    1.93751058209879
H         7.77444585722267    5.29287538001696    1.62256924401705
C         9.14143570993505    5.23608552195835    3.28433454809540
H         8.36220844802031    5.08661924362434    4.02337190808226
C        10.48980328709603    5.25030836667481    3.68857974265344
H        10.74530051983912    5.09659910633780    4.72989503986752
C        11.50134391310282    5.34674293066313    2.71855253063958
H        12.54168709193558    5.26135578279230    3.00829459343914
C        11.16116006396489    5.38831919074083    1.34958991720549
H        11.94977072831769    5.35825146133849    0.60553537654621
C         9.85977966266406    8.22170183406828    3.84734690105100
C        11.50536356704345    8.28805267045086    2.38368997193957
C         9.48199833508363   10.29555550888652    1.28057379851162
C        10.49568695507972   10.75195576423435    0.44329374319484
H        10.89806155522087   10.09956862085304   -0.31885578902088
C        11.00079842288080   12.03000146680845    0.59393961150112
H        11.78769710545373   12.37811507532605   -0.05923896675805
C        10.50914404459824   12.85890721624922    1.58865780442778
H        10.90928474528051   13.85485997076397    1.70851857793160
C         9.51396892437231   12.40396948316960    2.43834601403479
H         9.13973689742914   13.04368434896444    3.22398312807073
C         9.00546871232657   11.12739545117864    2.29051352229624
H         8.24023285645798   10.76264216151471    2.96189826425642
C         7.14884156387394    8.79401708075350    1.59569784904698
C         6.60998379591327    8.09749906672782    2.66899354373967
H         7.26428593290878    7.46446945601079    3.25434448633240
C         5.27150714597490    8.23542006028158    2.99305715361164
H         4.85804415620676    7.69298849873924    3.83092281411315
C         4.46303438676042    9.07465304538871    2.24495994114137
H         3.41772674806594    9.18336904152510    2.49430892926610
C         4.99814072347371    9.78492368687217    1.18158663638969
H         4.36938588169218   10.44933810575069    0.60645487048330
C         6.33531538165870    9.64939837758635    0.85802227467944
H         6.75396292603139   10.21904401654899    0.03990031857230

