40
CSD_code = PAJPEV | q = 0 | S = 0 | Stoichiometry = C13H23IN2Pd | MND = 4
Pd        0.57964420568032    0.26394071978616   -2.66479269237986
I        -0.18765158831159    2.50914125284812   -1.76084535289925
N         1.24242652109115   -1.73393216730915   -3.34977421508990
N         2.40281734887008    0.02265307500989   -1.30161875169299
C        -0.88640097506051    0.33650461494523   -3.98124355341711
C        -0.64539462172390    0.83311354415594   -5.25253889497861
C        -1.62575048166887    0.73104190890467   -6.22570218960068
C        -2.85492402731153    0.14726092083624   -5.94000734180093
C        -3.09075391308866   -0.32210218609823   -4.65516537931529
C        -2.11530398771159   -0.22294496332562   -3.67402859762685
C        -3.91208986932554    0.06157918245964   -7.00124004944853
C         1.16708930596791   -2.04035679136413   -4.77497797447881
C         0.35570035101573   -2.63506480340459   -2.61419162398373
C         3.30096508423507    0.97740568115189   -1.95457187514690
C         2.30833821191514    0.33534715518600    0.12083859014325
C         2.63179869259424   -1.87471972754046   -2.90233987952597
C         2.86910833101187   -1.35195654628948   -1.48159170378587
H         0.30280605078617    1.31624825274122   -5.48490883729836
H        -1.43896817207652    1.11851170762299   -7.21808582890331
H        -4.04960213937577   -0.76006058525841   -4.41255348791688
H        -2.32716028608103   -0.56307097401933   -2.66074750583228
H        -4.31087384569253    1.05371588790992   -7.21315363234683
H        -3.49801548457232   -0.33563227657344   -7.92710724846013
H        -4.73350445922910   -0.57574073306304   -6.68243503882832
H         0.13799301013079   -1.94457600289600   -5.12082439123537
H         1.78302927318157   -1.33967524743958   -5.34054280161355
H         1.51729969512111   -3.06284501592962   -4.97748462428210
H        -0.64387905322355   -2.58880402618977   -3.04990362874326
H         0.71347612939058   -3.67470514297264   -2.66625641380238
H         0.28548585893235   -2.33611133025043   -1.56436543212455
H         4.34128018574327    0.84308951188774   -1.62060704469365
H         3.26031734098193    0.86265336451291   -3.04540898401065
H         2.98484968314249    1.99370104808440   -1.71050472047787
H         3.28289958546455    0.23484678105563    0.61968326711286
H         1.95151903650554    1.35724845850934    0.24661357860931
H         1.59371356170617   -0.33450402042626    0.60282768041273
H         2.93818990788441   -2.93493784355644   -2.93942223333913
H         3.26821081208978   -1.32349481856397   -3.60221081806349
H         3.94807440073076   -1.43236654439245   -1.25919564227489
H         2.34094032028036   -1.99140132074466   -0.76721472686368

