57
CSD_code = PAJPAT | q = 0 | S = 0 | Stoichiometry = C23H27Br2N3NiO | MND = 5
Ni        8.56375464646759   12.57096412716483   10.75713975802109
Br        8.37522330259059   12.92020341416386   13.08406157063456
Br        8.00029604580560   11.53560143317508    8.69637799048059
O         7.43722332496462   14.04697098013256   10.33530280555268
N         9.76852767645068   11.28853708127048   11.02875987741812
N        10.42946717949597   13.75892137614846   10.32799904574879
N         7.04885632092676   16.23809690040958   10.03792789428921
C        10.55788731966558   15.12309031581935   10.04059102160895
C        11.40307713330758   12.94181520128739   10.46000894626429
C        10.83336169730318   16.03416430275740   11.06792216782060
C         7.44892254047433   15.20109209829334   10.75834090435510
H         7.77622198741020   15.45411569888518   11.77603757823635
C        10.27580546273143   15.57449807570548    8.74583704846895
C        11.13959957638559   15.55982664953321   12.45583634345054
H        10.44094069213815   14.78729752064113   12.77108377570051
H        11.08424892314254   16.38514198973532   13.16100988215387
H        12.14419686642787   15.13841526267198   12.50625480731603
C        10.00010557863862   14.58870742374123    7.65628345938965
H         9.69896806037480   15.09118661955985    6.74101198213288
H         9.21022842117539   13.90198665511643    7.95593883360610
H        10.88497041892560   13.98754784319617    7.44544597590377
C         8.01588308551412    9.76986077124954   11.62607485301102
H         7.28520631987824   10.56473562541167   11.47821551365080
C        11.05767218637653   11.56754407819317   10.84053998836252
C         9.38280830491997   10.04634594754478   11.41432910490553
C        12.04703432557759   10.57902201924974   11.02262934797525
H        13.08168831130719   10.83131978303669   10.86202469257954
C         9.88323851959571    7.73476443487876   12.00160981151790
H        10.61512265165163    6.95350716059507   12.14449014161572
C        11.69228401639200    9.31601664384020   11.39793190980691
H        12.43720794055757    8.54703342747804   11.53723780928299
C        12.83774676898659   13.31431346021205   10.24669992099220
H        12.90655496364200   14.35806151107585    9.94611188019833
H        13.27430569058826   12.69400258716356    9.46517152801469
H        13.40990191262786   13.17063370077987   11.16224504262174
C         7.61245140442537    8.52065650411306   12.00714170600719
H         6.56428445761417    8.31884733575872   12.16457942446194
C         8.55058161770634    7.49466470565697   12.19428177285131
H         8.21232247237585    6.51381889967008   12.49201855957628
C         6.61540096870618   16.06556527349333    8.67040268178747
H         6.65559049441451   15.00739568201781    8.42015735085926
H         7.27306058680317   16.62114589268366    8.00031566554084
H         5.59257201492448   16.42598816659425    8.55105579791730
C        10.33269397219184    9.00982023493450   11.61017716244914
C        10.52581206919409   17.86089039713448    9.50289681947876
C        10.26921874189906   16.93786971593863    8.49967357396617
H        10.06065494694613   17.28472978402833    7.49672761902145
C        10.80595040619610   17.38919956316478   10.77721189497744
H        11.01242365577464   18.09490799496448   11.56950929585548
C         7.06300691821855   17.58315427327593   10.54683770859316
H         7.44433487316731   17.59144446302622   11.56538156912198
H         6.05312905637759   18.00006894149104   10.53965744945366
H         7.70599201055795   18.20785186679828    9.92367287199868
C        10.52335051942746   19.33346785309807    9.21772977015195
H         9.94159499526217   19.55843060760055    8.32620297399246
H        11.54290802423917   19.68204941468978    9.04970138832755
H        10.11602762117515   19.89229030974759   10.05848373052862

