69
CSD_code = PAJQIA | q = 0 | S = 0 | Stoichiometry = C26H39FP2Pt | MND = 4
Pt        5.57454707458114    3.14269411945357    3.40661795751267
P         7.34349117154145    3.71037519244036    4.71441459643231
P         3.81127305073677    2.56644213869552    2.09227026974257
F         2.08463104618121    2.13667420366136    8.43886334265981
C         6.76963283289910    3.54894237751933    1.82054049368349
C         7.50994156889166    3.82861893523277    0.90023791750895
C         8.36968788801508    4.15105527227421   -0.17757798986879
C         8.86168490728715    5.45005175014416   -0.32545794279033
C         9.70466020699592    5.76125969128132   -1.37377724288828
C        10.07148610256025    4.78730537610886   -2.28908624804890
C         9.58796808271595    3.49576101175107   -2.14996550512261
C         8.74405507631301    3.17613710221667   -1.10505166795676
C         4.40089337667600    2.78142637503025    5.04808502746524
C         4.30575963425828    1.52221447081395    5.64494670820763
C         3.53895853627224    1.29211345318661    6.77554995199555
C         2.84443894504519    2.34827008562789    7.32950386040383
C         2.90576213859756    3.61524894872931    6.78526765866703
C         3.68354586855360    3.81499779117804    5.65658707575812
C         7.12070341153659    3.74030124388889    6.54931767652947
C         8.29930486719072    4.24438600746518    7.37128401009226
C         8.16016374257008    5.30682531532985    4.31346853837723
C         7.13183744058194    6.42880112916486    4.38472681009887
C         8.67193424232274    2.46825644771133    4.44088155628960
C         8.03003538145888    1.08778612750330    4.35190525951561
C         4.14658279707728    2.44585960181919    0.28137104470806
C         2.96990106961606    2.09048906079765   -0.61721934505801
C         2.87082209836666    1.03316974075760    2.48190367927444
C         3.75865354825966   -0.19186142572449    2.29869826897308
C         2.52949226845945    3.87561210475179    2.23966464725954
C         3.20491729647831    5.23609992977397    2.10539720797085
H         8.57221985747772    6.20907275457477    0.38898852464095
H        10.08029128108001    6.76980972759207   -1.47999516770780
H        10.73176782022957    5.03389071386987   -3.10811079556387
H         9.87263060776215    2.73423690516104   -2.86309750792978
H         8.36619221940218    2.16900578305080   -0.99301226359691
H         4.84513925077679    0.68260119343653    5.22100700972066
H         3.47552884470222    0.31190982386653    7.22505363372657
H         2.35489764681527    4.42406617262681    7.24273646250214
H         3.73006501654168    4.81809361990096    5.24529177335924
H         6.23200922874325    4.34443523927968    6.75170977149804
H         6.86775472418564    2.71392543556908    6.83223521740543
H         8.09991471233526    4.08696321228422    8.42974605860205
H         9.21674146196461    3.71594263255833    7.12041804813335
H         8.46029988897545    5.30857702535942    7.21686390473431
H         9.00917801146284    5.48804964294156    4.97633317894772
H         8.52916513847517    5.20892904517911    3.28911628232778
H         7.55450762498509    7.37159673474845    4.04327908063921
H         6.28602234945606    6.17508611913606    3.74240753728733
H         6.76530974668000    6.56207883333806    5.40117693234189
H         9.14283745898816    2.71784971995739    3.48654635948961
H         9.42931106091058    2.50773898263741    5.22720626475103
H         7.21739209725014    1.12396117490043    3.61465998142415
H         8.75176184554481    0.33609017510533    4.03818266795929
H         7.61475944661565    0.78926794797261    5.31293233119894
H         4.57375944113272    3.41115608609396   -0.00475972088609
H         4.95019170510840    1.71221638344390    0.16936989676366
H         2.15859797821148    2.80704094827598   -0.51176356751554
H         3.29070185043257    2.10067238589651   -1.65732773852048
H         2.58528802441147    1.09782009719135   -0.39565106668350
H         2.56079817760448    1.11707258159233    3.52711068128273
H         1.97227838003981    0.97456570207716    1.86280465616376
H         3.28424889094797   -1.08084719430226    2.70962288243086
H         3.96926186342228   -0.37021241242746    1.24628920174612
H         4.70822488047002   -0.03565162903431    2.81170076752831
H         1.73548911413965    3.74446797032124    1.50102796241360
H         2.09158105158642    3.77056485081849    3.23640553158833
H         4.09838860177322    5.25499665321755    2.74063412558596
H         3.52007152303657    5.41623508485974    1.07976056934985
H         2.53845550441400    6.04111029882736    2.40903291592435

