67
CSD_code = PAJQUO | q = 0 | S = 0 | Stoichiometry = C32H27Cl2NO2P2Pt | MND = 4
Pt       -0.25423904163373    5.63726105592765    2.94782160540631
Cl        0.72867312664573    6.37664619961858    1.04265862932919
Cl       -0.01521452702295    7.64196321164910    3.98768116685386
P        -0.59115686440408    3.48547581505462    2.26186926588643
N        -1.38099639147474    3.09645371129189    3.75937476505576
C        -1.67697378948720    2.96451880697395    0.91790734627775
P        -1.32596312643915    4.57574421012693    4.65707204240874
C        -3.02340752793372    2.66187321451637    1.09154709795181
H        -3.45558044015838    2.64651185629989    2.08254241513461
C        -3.80503804966008    2.37592212403155   -0.01307114116251
H        -4.84824153058067    2.12967209604431    0.11965994241186
C        -3.25673544676996    2.41103929177301   -1.28516101194195
H        -3.87322161336215    2.18677245210600   -2.14274023378899
C        -1.92371245635024    2.74969100390969   -1.46157761411515
H        -1.50388635376307    2.79835759867708   -2.45497287184031
C        -1.13446581091765    3.03551305424375   -0.36443304676045
H        -0.10053831638633    3.33171883788659   -0.48348994730059
C         0.89049053166022    2.43723689703343    2.23382708168318
C         1.09422509330898    1.33872866545850    1.40680557971996
H         0.33614821201705    1.02972881868272    0.70071066842738
C         2.28318323985087    0.63566441308545    1.49202048295459
H         2.44128648975780   -0.21967068105709    0.85263973792307
C         3.26486227430012    1.02387925398428    2.38934471271138
H         4.19018342916400    0.47022011128350    2.44694276233851
C         3.06898101072062    2.12887516168815    3.20420122939728
H         3.84030538107047    2.44078466824161    3.89231660174269
C         1.88719720023490    2.83848168218670    3.12080382992516
H         1.72476031037940    3.72618091033942    3.73006601022383
C        -1.91577964507427    1.86891596981586    4.14469645042186
C        -1.74211892627194    0.74826596155524    3.34219500307452
H        -1.19230399039907    0.81147568429257    2.41701530531680
C        -2.27364686497014   -0.47980930943458    3.71251938683660
C        -2.98851330118807   -0.60551391015620    4.90006185989857
H        -3.39810423002686   -1.56093717391698    5.18351408378974
C        -3.16029531528013    0.50997849000499    5.69994625623739
H        -3.71264482304102    0.42981749936320    6.62401365715504
C        -2.63436961215014    1.73532555983236    5.33243047278436
H        -2.77797806047313    2.59772396863949    5.96488748631515
C        -2.04049336792267   -1.62145103020565    2.79432259314527
O        -1.42580812200564   -1.54053543278615    1.75793858806513
O        -2.58669990565273   -2.76102678041390    3.23686029874970
C        -2.40293421038538   -3.89919380811236    2.40832846965687
H        -2.82992363094395   -3.72124948224401    1.41920684413327
H        -2.91269585740034   -4.72158313880223    2.90339179469392
H        -1.33912528196330   -4.11840191450570    2.29584906812372
C        -0.59130941992605    4.21597103536478    6.26669684874257
C         0.08844961465823    3.03686360727780    6.55417911449066
H         0.12381151891117    2.23694757269542    5.82778165672966
C         0.71935705375414    2.89478239827309    7.77713229504271
H         1.23993364231307    1.97666824294388    8.00606072589028
C         0.69274814837452    3.92680486035610    8.70147257584475
H         1.18895756176956    3.80928428494477    9.65316435724119
C         0.04871174790477    5.11752660459567    8.39982845970159
H         0.05138007807852    5.93011831960148    9.11058810122346
C        -0.58479954475436    5.26872861918967    7.18151176319974
H        -1.06074661681856    6.20261211793136    6.91252497266759
C        -3.06797401853519    5.01680829854593    4.91878642916720
C        -3.72633327932458    5.03636193692703    6.14230841428627
H        -3.20362341235404    4.76288236634855    7.04897172204788
C        -5.05607101788385    5.41678467205461    6.19495305766816
H        -5.56934671880529    5.43514535881057    7.14499947056498
C        -5.72723743725547    5.77762006200412    5.03793242569679
H        -6.76380317099712    6.07535661835075    5.08881988886098
C        -5.06787380628830    5.77198010589355    3.81788258877665
H        -5.58663873606557    6.06894558207849    2.91889157138786
C        -3.73886526888406    5.40123182114044    3.76008848262773
H        -3.19391678549954    5.42072992070219    2.81888035289061

