90
CSD_code = PAJVAX | q = 0 | S = 0 | Stoichiometry = C36H44Cl2O5P2Pt | MND = 4
Pt        2.78662956487053    0.38074812811623    2.88813689854405
Cl        3.09754632348452    2.63643702605626    3.26588177359575
Cl        2.01713986943136    0.78547958668332    0.72264866692413
P         3.65971219648276    0.03286959507434    4.97521614083737
P         2.46174213813858   -1.74671557514684    2.10814476820493
O         4.15986773752180   -0.79517031310265    7.97779810672668
O         2.15466037784004   -0.62474269995607   10.27999996975730
O         0.06035571303710   -2.15254167676792    8.93404891361595
O        -0.23579949702515   -1.88257800887804    5.84309495565092
O        -0.71356832015829   -1.64346932809604    3.01162198844079
C         2.89392198357824   -1.30061786200977    6.00811487734229
C         2.84258835672088   -1.00641995894582    7.49811595943603
C         4.22655131624461   -0.12315494843096    9.20829041915577
C         3.53963320757623   -0.87667741460613   10.35351548733502
C         1.31910455325747   -1.58600951875285   10.87530093143479
C        -0.04262649678603   -1.52333517639699   10.18968273909934
C        -1.10785360798852   -2.04944328944334    8.15573806204130
C        -0.85734223768151   -2.70733870785191    6.79175318100956
C        -1.06010518398889   -0.90147667604919    5.24969427042784
C        -0.51627068058444   -0.54251375454616    3.87026248353764
C        -0.34976612863679   -1.41437128531297    1.66291093079109
C         0.89308695477368   -2.19443283190604    1.23044241678268
C         5.40798792326710   -0.40756541979480    4.76597618846132
C         6.09249508057294   -1.32047403331070    5.55876191170090
C         7.41085344900384   -1.62686546432985    5.26734339829364
C         8.05081606473680   -1.02952175065133    4.19361679807967
C         7.37679234184981   -0.10378883603470    3.41245995776868
C         6.06044847533442    0.20512095670239    3.69729665040498
C         3.66500784415754    1.47698588323595    6.07087209518269
C         2.43046395761996    2.03657828115923    6.39011848858608
C         2.36384618818712    3.14195852960489    7.21501493464822
C         3.52940036006007    3.69725810562034    7.72111904061100
C         4.75745933908714    3.14681633788116    7.39719510433041
C         4.83043069075631    2.03737965180575    6.57182585085848
C         3.71339572743471   -2.13131471918757    0.84744964811011
C         4.71621188862142   -1.20945928234793    0.57883148242181
C         5.69035060565967   -1.49404057481397   -0.36089744275773
C         5.66671753482371   -2.70309381515536   -1.03547392024255
C         4.67138486818173   -3.62967392371996   -0.76580231966894
C         3.69842263017616   -3.34975528459428    0.17531948692697
C         2.72324672995458   -3.14069567691936    3.25276318929524
C         1.66660360112828   -3.75668291957842    3.91411563957098
C         1.91979045296423   -4.76464821205453    4.82799530453057
C         3.22114143816703   -5.15391190187602    5.09837404985956
C         4.27847268131747   -4.52651199605246    4.45712690797101
C         4.03187457825766   -3.52082414478149    3.54207020165016
H         3.46120587335154   -2.21444776375448    5.82709012075295
H         1.87148596196356   -1.46839573604081    5.66132148659956
H         2.23302342572812   -0.11766395284680    7.69883231613128
H         2.36973831372968   -1.85458622954042    8.00857193356082
H         3.76507438296171    0.87121752762523    9.12942532892112
H         5.29203172390621   -0.01376653555446    9.42100858819193
H         3.74555287382404   -1.95154567419697   10.25483482343139
H         3.94016371390572   -0.53205708276916   11.31883229208655
H         1.20513722623455   -1.38840823827947   11.95195549184265
H         1.73136933499043   -2.59536374163011   10.74303100242781
H        -0.79949000219635   -2.02994422423806   10.80897862165163
H        -0.33116069950093   -0.46981644219984   10.06975957152192
H        -1.38840091592569   -0.99421338610652    8.02507457977812
H        -1.94048738286183   -2.56306779241840    8.66312851789217
H        -0.16965893663021   -3.54236379672061    6.94218972193067
H        -1.81145802859579   -3.08433052295883    6.39543572694387
H        -1.09555789909288    0.00758597880853    5.86667696655634
H        -2.08055322696659   -1.29065054617536    5.13104040877183
H        -1.06158191994681    0.33495186803006    3.49420909632807
H         0.55901871459347   -0.28350493631680    3.94144545714414
H        -0.18439701409283   -0.34779423883077    1.48255392323447
H        -1.19507098346326   -1.74376614854588    1.04497720184349
H         0.72332533260539   -3.26657539269977    1.35850157493282
H         1.06819325685961   -1.97625254292249    0.17360912786463
H         5.60362461357166   -1.76801382818478    6.40956733619099
H         7.94359991810985   -2.33735054270689    5.88318686727786
H         9.07718045438839   -1.28076683673048    3.96891445445655
H         7.87786846207763    0.37215233206134    2.58259344970824
H         5.52215756018659    0.93844841656116    3.10552565716253
H         1.53121470252433    1.61075303876893    5.96176747797880
H         1.40676047464124    3.58061666804543    7.45751474258326
H         3.47869606230024    4.56640714999138    8.36060801551654
H         5.66510435496816    3.58697579777764    7.78422443403872
H         5.78871438094046    1.60909518310235    6.31614496693796
H         4.71189658645598   -0.25863169870289    1.10040074129702
H         6.46466341063053   -0.77137158555853   -0.57116287049815
H         6.42310164936202   -2.92580213243469   -1.77367112310178
H         4.65540890351690   -4.57325122334705   -1.29179971790902
H         2.92860981655683   -4.07681982131527    0.39454059031980
H         0.65265645806116   -3.43537699346117    3.72721828694335
H         1.09661391298926   -5.24998375870620    5.33187731815938
H         3.41403615454220   -5.94238855988452    5.81114462268343
H         5.29569108592980   -4.82010085829775    4.67200428191750
H         4.85417532142965   -3.02332629717125    3.04463000070448

