52
CSD_code = PAKBUZ | q = 0 | S = 0 | Stoichiometry = C23H22N2O4Pd | MND = 4
Pd       -0.10606344238937    5.61267955205427    7.17508939483734
O         1.37460953644283    7.11572011125246    7.18659246194441
O        -1.19036761797577    3.89467041825845    9.13508515896716
O        -3.37558723677060    4.39554563775791    5.12166820938279
O        -1.12136122757673    4.31592297756520    4.94467407594555
N        -1.26995995966414    7.10673157806299    7.52455266177853
N         1.33388723350547    4.27786654853662    6.93442237298973
C        -2.56221365033470    6.99033995981343    7.76250449880293
C        -3.33547124736038    8.13885699676248    8.01666973904852
C        -2.73902466719101    9.37270267750915    8.02700198275831
C        -1.34732310196447    9.49913655827955    7.81270883692679
C        -0.61846132625865   10.69843074837214    7.83767599053503
C         0.74386971160643   10.66767099984000    7.63961831684131
C         1.44730090689831    9.48648067542685    7.41715333143073
C         0.78385067967763    8.25941918446255    7.37309231812188
C        -0.63693207875192    8.29854497238964    7.56448502797275
C        -3.05256876751694    5.57393014764298    7.75830070781462
C        -2.01034235567825    4.67514755472778    7.07376564422455
C        -2.29193723669027    4.43201563323942    5.65461401992460
C        -1.23785557336791    4.00899480627397    3.55436268223177
C        -1.12736656291220    2.50979113129577    3.31069497045584
C        -1.33905525446820    3.70066552734669    7.91873484341996
C        -0.99507275378995    2.34156309937489    7.32289896168688
C         1.90593734291798    3.86953225225404    8.07272385128410
C         3.16333329450739    3.30551160416598    8.11319000601601
C         3.89437810546204    3.14759749498781    6.93024468680720
C         3.28245834898831    3.59300774793088    5.75406081034349
C         2.01977554632325    4.14772899156945    5.79764998469411
C         5.22391089015866    2.56071759946952    6.87220138372023
C         5.90584269441235    2.05818485541772    7.89635117386813
H        -4.39350008724450    8.02886464327459    8.19760701395726
H        -3.32296787260770   10.26312149495770    8.21152015040634
H        -1.13240870651400   11.62949742568785    8.01992140990287
H         1.29823856591318   11.59552395238201    7.66360254418004
H         2.51766698429117    9.50631393536878    7.28100804335700
H        -3.17418510062416    5.23859235503293    8.79544595169316
H        -4.01213870445312    5.48232638751874    7.24201083351119
H        -2.20403614664722    4.38146790465069    3.19744144933633
H        -0.42869807289484    4.54923287962576    3.05635491398520
H        -1.94116662320056    1.99132329977479    3.81178792387313
H        -1.18764172142432    2.30776406357371    2.24514413897550
H        -0.18042508129009    2.12984525649385    3.68918335480005
H        -1.91392909025209    1.75481547491653    7.30638842343268
H        -0.61117735938494    2.41658758894787    6.31032139597201
H        -0.27442319459711    1.83111349982769    7.95876016107306
H         1.31456803379548    3.98967063957360    8.98109159190560
H         3.57313655531369    2.99654885623350    9.06075058806381
H         3.79770057918117    3.50652825720925    4.80920788222976
H         1.52738867419764    4.49741619228505    4.89630308182249
H         5.66760236876664    2.54890300012823    5.88471381453818
H         5.52033135694189    2.03761303892391    8.90104768473044
H         6.88897441249597    1.64232181156050    7.76029954349165

