39
CSD_code = PAKFUD | q = 0 | S = 0 | Stoichiometry = C12H16Cl2N6ORuS | MND = 6
Ru        5.90648705638626    0.78778736915265    2.68556321138950
Cl        7.78019541010154   -0.60940072013641    2.70469697729492
Cl        4.58309672560324   -0.66639917356260    1.43024564473782
S         6.75353422365102    1.57571699054849    0.72476435834905
O         6.05799562466122    2.75044732167322    0.20902623645574
C         8.52914930004851    1.99551533580636    0.70890827017117
H         8.66079998602604    2.90417336553701    1.28646312174589
H         8.83605421497433    2.16213252460623   -0.31677166940100
H         9.05799960813518    1.15900734023456    1.15334694729069
C         6.82050298831113    0.33815354865414   -0.59439545526527
H         5.81026297086831   -0.02261846010760   -0.76073521291672
H         7.44397980733481   -0.47093886145089   -0.22833657396417
H         7.22401687732942    0.79917846932421   -1.48826361224436
C         3.53147898380676    2.51048357718920    1.81066784076545
H         3.62120216217183    2.20897101133887    0.78571892339527
N         4.36428272806032    2.04952957917263    2.71801676170775
N         6.86433162557053    2.03701423295811    3.94802369783920
N         5.12803798436950   -0.00780130052317    4.34367960294342
N         4.01648106748534    2.60404594508319    3.89255459208218
N         4.63131327366812    0.81129175621861    5.28650772299149
N         6.13223501550637    2.58249734614380    4.93976048983635
C         2.61426057197891    3.39142802993068    2.40793108082716
H         1.82112575800375    3.91990242709278    1.92205396875357
C         2.94442979246583    3.42928766004049    3.73554978299321
H         2.51956804771361    3.96175036412841    4.56186212858135
C         8.11389277952367    2.40504418599329    4.15626404691020
H         8.89923934946443    2.05789316817323    3.51548397163448
C         8.19978774969612    3.20793703044012    5.30413160048557
H         9.08242880377080    3.65099677624346    5.71534926481350
C         6.92206118421915    3.29863215852518    5.78632434076211
H         6.51758142763908    3.80479533214504    6.63872043137079
C         4.91798850711908   -1.24344725397921    4.74709114580132
H         5.23322762898492   -2.07337716047124    4.14213083882145
C         4.26708790341956   -1.22972579451251    5.99161772141027
H         3.96572247423168   -2.07854585625137    6.56892540229666
C         4.09826531245505    0.09158035817879    6.31051783080743
H         3.65389141153261    0.56732485120048    7.16078628733085
C         4.73841263048050    2.23667898269198    5.08058284358717
H         4.31839103322919    2.76575754264978    5.94513543762513

