106
CSD_code = PAKHOZ | q = 1 | S = 0 | Stoichiometry = C55H43CuN5P2(1+) | MND = 4
Cu        2.83010623199756   11.34417107286332    3.18390302018972
P         4.58180025309438   11.33592123277213    4.65543608964830
P         3.35887450648291   11.25331816718749    1.01046779456380
N         1.39077892719791    9.96206009421967    3.71025253058221
N         1.58542713006456   12.55589388195755    4.22324326853187
N         1.48394741875880   14.36065438383866    5.72796030735019
N        -0.43573650015353   13.49303142195922    8.62157692582461
N        -1.99343627771129   13.63916857662394   11.83484499585219
C         1.22353649120231    8.74303292308491    3.22469024190554
C         0.13440669879985    7.95514470339336    3.55414165515745
C        -0.81958188329100    8.47426055622543    4.42007157381059
C        -0.64844115665915    9.75185662187984    4.92366445896158
C         0.48105359091374   10.47419736201360    4.54608108007746
C         0.76129964566605   11.83684541976658    5.00994664416646
C         0.27634028021515   12.36675753442769    6.19272384012037
C         0.69190393546803   13.65575929347379    6.54194243388597
C         1.88164480314900   13.78552838556972    4.62333002022985
C         0.29327054702946   14.25789368824426    7.81176315596609
C         0.68529797439649   15.55568644407293    8.13993515386753
C         0.29844520881073   16.06537992870863    9.36924561770451
C        -0.45681841676218   15.27340749860459   10.21348728953231
C        -0.80814673738896   13.98315068466339    9.79633070088939
C        -1.62186533481140   13.12131720765991   10.66570176098423
C        -1.98582555600713   11.83349697686816   10.27316231715077
C        -2.76554752241804   11.07402927350662   11.12744937859114
C        -3.15334237898816   11.61940034385320   12.34119525988602
C        -2.73423769706244   12.90896288527835   12.64286682032087
C         6.02816486634929   12.25731658636461    4.04791461683574
C         7.34520612889804   11.85459133203298    4.23569730433452
C         8.37244709660653   12.59568229687016    3.67758650561915
C         8.09506542466106   13.72939858986486    2.93065267300067
C         6.78241057146171   14.12956246807097    2.73514478767556
C         5.75277167390401   13.39202596590468    3.28678192280157
C         5.25758465142112    9.72645090929431    5.15910406611958
C         5.02669971520109    8.64526561151458    4.31495884675286
C         5.54432270485557    7.40073682059891    4.62348303949271
C         6.28515421727862    7.23084329437126    5.78189683685484
C         6.50395673372536    8.30317157693958    6.63360456934417
C         5.99312061162272    9.55140031204647    6.32851206510092
C         4.18531656737103   12.12111902112484    6.24600127412080
C         3.33467658295295   11.41911544820684    7.10011355897534
C         2.90057971620278   11.99687793987298    8.27688495005588
C         3.29773441523568   13.28495487458465    8.60213209504721
C         4.12887936527315   13.99090949340350    7.74886513116571
C         4.56956351611325   13.41757170632810    6.56888010031629
C         4.48379007090822    9.86090138529019    0.71767369449876
C         4.06528695811805    8.67550741242762    0.12200567089547
C         4.93561072466010    7.60209252979600    0.03886491235651
C         6.21598132000357    7.69883762358676    0.55871765288903
C         6.62969675741774    8.87137185024065    1.17283830951908
C         5.76603328785402    9.94572668398035    1.26100426648696
C         4.20749569877486   12.69415112524405    0.29352578765386
C         5.35473066244709   12.63158369403611   -0.48642099720640
C         5.90835568711935   13.79978339220959   -0.98173226543891
C         5.32269792595049   15.02437309761275   -0.70778747105408
C         4.17280785011304   15.08869217596583    0.06487546055967
C         3.61912629078109   13.92747562385411    0.56691925821169
C         2.01226627611678   11.01191105222364   -0.18771607643423
C         0.70696999017413   10.95074714744158    0.28678525103299
C        -0.34359644829616   10.78262763816633   -0.59764969032026
C        -0.09140255629319   10.68076202824441   -1.95576829951740
C         1.20949173001342   10.75172516084915   -2.43220125075147
C         2.26328301188511   10.92017424328333   -1.55420667768868
H         1.99149809066264    8.39322530022065    2.54712877939690
H         0.03362396549231    6.96389327850185    3.14365393418269
H        -1.68647421513882    7.89223017818783    4.69266498702500
H        -1.38323070644386   10.19150430754173    5.57839832007166
H        -0.36384565751356   11.82072032427274    6.86303038735659
H         2.51522031306407   14.37362523625014    3.97077061506741
H         1.27370648870037   16.12305700332274    7.43806819059988
H         0.58218353488042   17.06545778726066    9.66185076740552
H        -0.78886537365802   15.61173137660157   11.18103722381727
H        -1.65579822924977   11.45883552552648    9.31793199794479
H        -3.06727864884526   10.07325532089549   10.85301554247596
H        -3.76324677395384   11.06330912088552   13.03512106940540
H        -3.00787855047580   13.38210839817727   13.57669168747769
H         7.56526651638413   10.96292135710828    4.80470778440641
H         9.39545038644869   12.28299421495219    3.82369328056418
H         8.90197526282570   14.29926220966337    2.49623754861835
H         6.56084090386290   15.00668646595831    2.14629835081762
H         4.72065181947331   13.67906679549151    3.12578477425090
H         4.44121536876802    8.79506582231352    3.41659944725749
H         5.36893620906873    6.56478667525120    3.96284555043271
H         6.68958927476381    6.26029864109492    6.02560176604952
H         7.07771008450271    8.16583274767395    7.53788787168854
H         6.15879421414842   10.38892711838060    6.99261625595366
H         3.02723314881291   10.41475887515166    6.83285046630994
H         2.24607147891107   11.45003114299927    8.93912330131018
H         2.95587496123840   13.73652059631949    9.52103563312216
H         4.43439386685762   14.99479083068929    8.00133455332651
H         5.21648725813909   13.97169755324829    5.90337668827027
H         3.06428660789872    8.59735981895860   -0.28022418876630
H         4.61163900728212    6.68641651488236   -0.43298713191946
H         6.89086061851821    6.85947532246405    0.48947204436719
H         7.62352023414368    8.94558652976061    1.58813475842325
H         6.07556379699144   10.86020727422583    1.75084179953891
H         5.81627672337514   11.67952596596302   -0.70618072003304
H         6.80097417539623   13.75140071677314   -1.58721306998905
H         5.76065113864369   15.93053322283674   -1.09803394509264
H         3.71346477466358   16.04338625132977    0.27424001334362
H         2.72121205919839   13.95661873745565    1.17379296577079
H         0.52864311069873   11.04193914164032    1.35141551440049
H        -1.35781168209905   10.73417251781278   -0.22982272216687
H        -0.91001564084308   10.55014683808025   -2.64689964618444
H         1.39990104533099   10.67827067470547   -3.49223714704845
H         3.27929505649381   10.98150159147686   -1.91921151441665

