24
CSD_code = PAKJIU | q = 0 | S = 0 | Stoichiometry = C10H8Cl2N2PdS | MND = 4
Pd        3.35091418658089    1.57701570132571    0.59172633211085
Cl        3.17844186728356   -0.14721605480450   -0.78608520941741
Cl        3.72656476939172    2.95965577904076   -1.09600203467316
S         1.13254616150176    2.19323191367513    2.83641003157099
N         2.96897963157612    0.33548608462145    2.15182533431909
N         3.46701240376272    3.14742400549011    1.87184920631732
C         1.98639905752480    0.63249795460662    2.99964902285008
C         1.55309701377672   -0.24208733665659    3.98586660277850
C         2.17439226266559   -1.47547242970388    4.09104444871036
C         3.21639292482874   -1.77436552402575    3.22331771915092
C         3.58428239146895   -0.84336918273540    2.26880274152067
C         2.47442280034330    3.36789216403508    2.73134384927490
C         2.40350275654331    4.50465299114138    3.52385557127040
C         3.41234678002884    5.44734285974937    3.41415736213738
C         4.45992723892218    5.20511953416594    2.53560103151543
C         4.45174419349762    4.04432508847311    1.78345933653072
H         0.74260007410959    0.04570468367713    4.63557233694844
H         1.85313933310855   -2.18551579193136    4.83710168803143
H         3.72994365094086   -2.72031097175190    3.27559569390560
H         4.37391345675195   -1.03807922723086    1.55164094857995
H         1.56937511774661    4.63785722377516    4.19302369112041
H         3.38105400123683    6.34955213246943    4.00488896847149
H         5.26698371247813    5.91053808595601    2.42448364853094
H         5.23272421393024    3.82032031663779    1.06537167844434

