55
CSD_code = PAKKIW | q = 0 | S = 0 | Stoichiometry = C26H22Cl2FeN4 | MND = 6
Fe       -1.64851767837674    1.73510547932339    3.99968031334358
Cl       -2.88408552730298    0.24825087619340    3.04821539830181
N        -2.97308448349216    1.70770736561129    5.42633769393666
N        -2.73259042834538    3.07185355597236    3.35613138241457
C        -1.59589845023024    5.16255440845836    3.25754692406306
C        -2.17618911625169    4.08097515724055    2.56776517697794
C        -2.08168314140770    3.97599216474444    1.19093733979545
H        -2.53331513300505    3.12917105004968    0.69942603888340
C        -1.39927904237568    4.95159672539123    0.48488938602411
H        -1.32256165185261    4.88200312184327   -0.58944252122918
C        -0.80046616369567    6.00101431469457    1.15510270799368
H        -0.24846426754385    6.74625555494503    0.60117525136588
C        -0.87851213699886    6.11606849073857    2.54062119800179
C        -0.16938044207769    7.24441744933462    3.22786569407182
H         0.82583448411198    7.37124449773319    2.80584760998650
H        -0.08044633478823    7.06105993814983    4.29533763405803
H        -0.71140966087826    8.17828132101787    3.08137919105831
C        -3.87744753272341    3.23191688435631    3.95040479125607
H        -4.56403917555746    4.02733223022414    3.68346353063478
C        -4.08792643639956    2.40082526251178    5.08431549071572
C        -5.24946962722753    2.35847213636977    5.86134986441635
H        -6.11752970560454    2.91441804415569    5.54403874605398
C        -5.25806470491059    1.59228413749033    7.00601211456294
H        -6.14236677532028    1.53266341353104    7.62222515993530
C        -4.10651830046670    0.88906876234316    7.34938124134922
H        -4.07414649220658    0.27410627862726    8.23377018769975
C        -2.99605666887900    0.97382151873876    6.53014788230820
H        -2.08848824841275    0.42727132155157    6.74347965604719
Cl       -0.41220301887280    0.24846585473264    4.95042478264489
N        -0.32397282510935    1.70768366137109    2.57307771222694
N        -0.56444293779203    3.07181620132299    4.64326493438951
C        -1.70095305533357    5.16262238362922    4.74162269699604
C        -1.12086417367240    4.08101741427086    5.43152453191374
C        -1.21560701166055    3.97607956094993    6.80833232425533
H        -0.76405127036606    3.12929861377642    7.29997361647854
C        -1.89817300951350    4.95168527389018    7.51423087349200
H        -1.97516658865204    4.88204545288474    8.58853788604150
C        -2.49681189186922    6.00111747412811    6.84389452001554
H        -3.04893767468384    6.74635453116024    7.39770468621782
C        -2.41839352738798    6.11621423138552    5.45839863207265
C        -3.12708474647141    7.24476940371534    4.77100686951757
H        -4.12221901291750    7.37222438208897    5.19325908969351
H        -3.21624819116408    7.06117924377455    3.70347776245146
H        -2.58438080842223    8.17840184013313    4.91720321700866
C         0.58042585332028    3.23183736959353    4.04899723256880
H         1.26703395388718    4.02727635459537    4.31585924758066
C         0.79087180361144    2.40077761322080    2.91507599545809
C         1.95240436926844    2.35848496204033    2.13799953369850
H         2.82047036884222    2.91440291806449    2.45535272317236
C         1.96091444831934    1.59246307746765    0.99322996605619
H         2.84516218163541    1.53292311198100    0.37693075004259
C         0.80934184927202    0.88925200613761    0.64986531179755
H         0.77691879198445    0.27443169701752   -0.23463587065076
C        -0.30106814911524    0.97388916159714    1.46919064841385
H        -1.20866288490733    0.42735474372952    1.25589524241857

