57
CSD_code = PAKMAQ | q = 0 | S = 0 | Stoichiometry = C26H24Cl2N2O2Pd | MND = 4
Pd        2.50194011108851    6.75649934725376    5.85450341495764
Cl        1.18025386552666    8.53292091577580    6.00610091513818
Cl        4.06059253810059    7.92197349392578    4.78802309829687
N         1.09613425826513    5.68571379323884    6.80446212080788
N         3.69095941667618    5.14486781698904    5.73721716156495
C        -2.31027269739346    2.19737295368373    8.82995184354793
H        -3.29852947840260    2.10937903068136    9.27163849591972
H        -1.65593002030555    1.45890548560339    9.29505194735475
H        -2.36255421165551    1.98022872076878    7.76516051577664
C        -1.77760931935491    3.56742522032924    9.03747378512493
C        -2.04796667542319    4.51436500599826    9.99244529699877
H        -2.74823636563180    4.42455063087087   10.79730404779568
C        -1.22956758880271    5.61824389068119    9.70046216117370
H        -1.17464768004568    6.54584327347416   10.23182286125053
C        -0.50450272602269    5.27997679307113    8.57438464871731
O        -0.84941773695395    4.02347416627529    8.18258329928105
C         0.47104423525046    6.04534303925656    7.86832476515234
H         0.69408192846355    7.02788071419947    8.27434055420031
C         0.84199788293131    4.46612228109328    6.15034418867262
C        -0.19664628377346    4.37061087766119    5.23246882682106
H        -0.82737238302307    5.23037325130108    5.05787080120729
C        -0.39269001459652    3.18057677342023    4.55456098017273
H        -1.19749206374058    3.09939005846274    3.83970524478698
C         0.44070451019528    2.10207463887866    4.78391098047917
H         0.28724747136678    1.17909151116418    4.24388744182096
C         1.49017530956474    2.18394252344344    5.69434796667631
C         2.39481921231594    1.00485209173234    5.89558004640950
H         3.26623850114970    1.28030094709611    6.48258375611708
H         2.72358870442793    0.61853241250111    4.93175361203180
H         1.86442201489632    0.20443129499403    6.41137728735781
C         1.68316564406438    3.36972860369922    6.39555825182981
C         2.79378687009095    3.58108177474874    7.35737648772920
C         2.84427691064313    2.98748073706778    8.61437854190682
C         1.76888138216450    2.04924336888084    9.07523558572361
H         1.43333708082219    2.32824839600990   10.07325077723587
H         2.15174597198572    1.02988614728441    9.12581163109225
H         0.92008804118129    2.06966937051789    8.39760011721054
C         3.91175401627530    3.28285074075117    9.45717715477489
H         3.95425345166201    2.81681307421203   10.43086614328920
C         4.90292738000905    4.16617956429450    9.07291251376551
H         5.71973319697886    4.38703649863767    9.74327847005781
C         4.85071887810410    4.77739843672974    7.83281501898976
H         5.60701640919657    5.48212027160909    7.51837506787713
C         3.79563550849990    4.48723032964296    6.97663826336535
C         4.30839479067215    4.74331864595552    4.68399544341450
H         4.21100416058635    5.34444323633668    3.78445140577783
C         5.12520396349692    3.57828735816608    4.57662911078028
C         5.83253765416661    3.10634656322518    3.48794561118525
H         5.88599088221052    3.56541785727963    2.52241958192855
C         6.46476634103903    1.92401449006587    3.90718501182464
H         7.10164014473406    1.29056629604825    3.32463174079419
C         6.10905784783162    1.73778680510041    5.21897374564004
C         6.44558154108935    0.66476790511704    6.18820384607019
H         7.39923122991991    0.21325633612771    5.93071389462500
H         5.68076646398209   -0.11288823279967    6.17746960436995
H         6.49399864937890    1.07892290343989    7.19299095910925
O         5.30304087413947    2.73022956802865    5.62567395402406

