82
CSD_code = PAKSUR | q = 0 | S = 0 | Stoichiometry = C31H42BN6OY | MND = 10
Y        10.32635683638406    9.41764894151311    6.49375366690485
N         8.79098155447211   11.22955502588286    7.21445455076319
N         9.21033573336075   12.04225429327689    8.21304541399589
N        12.16933320918978   10.95946731306878    7.12650734107140
N        11.71042811889424   12.03190624976419    7.81159466088153
N        10.27279879184627    9.41085059900700    9.00527594645211
N        10.69204193072131   10.56062093686549    9.57827920371777
O         8.04899446646217    7.97517643022930    6.53666352901345
B        10.59713717930788   11.92601038073344    8.87145444314913
H        10.73140285203063   12.78765193224624    9.66608767885649
C         9.17172248688983   11.71473648911337    3.73569753495557
H         8.70696712477434   12.68508475467476    3.67687227038635
C        10.42135140008851   11.44721939921392    4.24405486499654
H        11.14573817964597   12.17979554056285    4.57327653158566
C        10.64969489335424   10.02419441739619    4.17005513580984
H        11.64193198138798    9.62041938541575    3.96697734673192
C         9.48295875475540    9.48075226980992    3.51961307532567
H         9.37248372481320    8.45523973530374    3.19836478400331
C         8.59757081841599   10.50701897263680    3.28361242048977
H         7.63014968431559   10.41452530876298    2.81716183397669
C        11.59458868625936    7.41124381263893    6.36424820064612
H        12.51378633998684    7.65448778243346    5.81362132464571
H        11.89048206664981    7.08434704140151    7.36964692369934
C        10.92107678572309    6.30652681305341    5.66157279350064
C        10.91358878842643    6.24124393176819    4.25848134821972
H        11.42740420562870    7.00898023830831    3.69462386010476
C        10.27332721421401    5.22128551576121    3.58594568083317
H        10.28246230178757    5.20424096263490    2.50477747309806
C         9.62930575457313    4.21059669287899    4.28501634574215
H         9.13078567511649    3.41071774112614    3.75759888620429
C         9.66017529680910    4.22972308855662    5.67003172716033
H         9.19771133822292    3.42687512883720    6.22985682976575
C        10.29668257511582    5.25315351009188    6.34442849788295
H        10.33136708772282    5.22720164864499    7.42481055144944
C         8.23880970329761   12.91620830342114    8.53777161578626
C         7.15608476753131   12.66391713495672    7.71891730129506
H         6.21610226767489   13.17761507420002    7.70739594831202
C         7.54800944639427   11.59941780904507    6.90503126342381
C         8.34327441069505   13.94440179604065    9.60736419463033
H         7.41764843868229   14.51269284563853    9.64900636777281
H         9.16671643296670   14.62888734870964    9.41424367973609
H         8.51194862218211   13.47664282103612   10.57580187500496
C         6.73186020008610   10.95787596180029    5.84168897600684
H         7.27831920655611   10.13193742098237    5.39185621491507
H         6.50822986611019   11.68471722054468    5.06232037869990
H         5.78428139757401   10.60720532303492    6.25175907948678
C        12.47222444175316   13.10989603218130    7.54901547111036
C        13.47007692677657   12.71819708507253    6.67613690197370
H        14.24936682373935   13.32746338434749    6.26493533314342
C        13.24387352690020   11.36076441011552    6.44277325150406
C        12.22028473861023   14.46440651434971    8.10640698719550
H        11.21211256405557   14.79278235898676    7.85974840192398
H        12.93369739350593   15.16808305938813    7.68578579894073
H        12.32271523859346   14.46518518382451    9.19050638346230
C        14.05604537619238   10.45080353308529    5.58866085848124
H        13.87517786763465    9.41320146524722    5.86142097962908
H        15.11396959035086   10.67446042748737    5.71545472323373
H        13.80741090621777   10.59265423388236    4.53663980373134
C        11.07302712417341   10.33194665359682   10.84860094585680
C        10.88126499298614    8.98834567010231   11.11116698254584
H        11.08097914113652    8.47012950398477   12.02714849829807
C        10.37514744842173    8.45178500992568    9.92622527253250
C        11.61623758927085   11.37096662380425   11.76257814647429
H        12.47070157191521   11.86927888282985   11.30909768877827
H        11.93040340082756   10.90489264896614   12.69278229100794
H        10.86340181278476   12.12520622858564   11.98595200673744
C         9.96315828426329    7.04383162632721    9.67458595167021
H         9.64827507222612    6.93148143396349    8.63953335832695
H         9.14127970827501    6.76860951166382   10.33694812333434
H        10.79283390672644    6.36667645021212    9.87628867769540
C         7.48708338595511    7.17958559428816    5.48979068186891
H         8.30936955879154    6.79740065034261    4.88538160258829
H         6.83957464652223    7.80627390078387    4.86268130479326
C         6.67245430274822    6.06071790696711    6.16513227862387
H         5.65763706609849    6.03422215400482    5.77172349266731
H         7.13346290650726    5.09032190549562    5.99768668940271
C         6.68678480160621    6.44147767418661    7.65168606741450
H         7.43008376692232    5.85192089368772    8.18676276208031
H         5.72014138875475    6.30790782281908    8.13144033867118
C         7.11293820202397    7.90832615852423    7.60769367765463
H         6.24738112818630    8.54773154593959    7.38704679764580
H         7.60371480146555    8.26499451799027    8.51326189790291

