112
CSD_code = PAKVAB | q = 1 | S = 0 | Stoichiometry = C50H55CoN5Si(1+) | MND = 5
Co        3.51095329736565    3.28640056142210    1.14442207525198
H         3.65164089907017    2.60235712282823    2.38054012731164
Si        4.03400202041671    1.30271992042108    0.16635672831589
N         0.91090406570402    2.57981265830245   -0.08431823750916
N         0.86501241128493    2.25485028567654    2.03260357247709
N         5.94059204864146    4.27390783159338    2.52570229377898
N         6.30518874775499    4.00918157701168    0.43240952589868
N         3.33306152432147    4.43209547804915   -0.24151116098305
C         1.66382613142750    2.68577525961058    1.03404427544627
C         5.34139930451401    3.90414997069605    1.37615781271838
C        -0.33650959822586    2.10276521716311    0.21310536878530
H        -1.07935436707853    1.93438451123039   -0.53857179594800
C        -0.36506862430540    1.89901420401830    1.54878520801278
H        -1.15127758612892    1.55365927674997    2.18688200915995
C         1.31670469083825    2.91833600630609   -1.39970470979478
C         2.29478121978503    2.14803741347236   -2.03106926222660
C         2.69911234564610    2.52094264358987   -3.30404049612148
H         3.45595205323947    1.93756938715354   -3.80465422100165
C         2.14336991944163    3.61268775101637   -3.95532891501835
C         1.15063261453266    4.33874154956393   -3.31294344815284
H         0.69560939008318    5.17897787900298   -3.81778146792333
C         0.72408594499080    4.00894146949246   -2.03526417941379
C        -0.32782955137736    4.82860131339321   -1.34769461042470
H        -0.48161720654106    5.76957465850032   -1.87027024104635
H        -0.04675642011305    5.03974880149321   -0.31610953471017
H        -1.28163734330321    4.30262158539126   -1.33206995548504
C         2.61637657616191    4.00237930530958   -5.32070277932805
H         1.94509256129007    4.72481684709868   -5.77707922860135
H         2.68222999440375    3.13045148989648   -5.96752155364415
H         3.61034404240336    4.44415331235894   -5.25717641379671
C         2.86215715467895    0.95007891942578   -1.35792805627463
H         3.42454936077917    0.36941826509507   -2.08516963428525
H         2.04886752685623    0.32323591688579   -0.99121592854165
C         1.18295734475871    2.14568122775779    3.41181293739743
C         1.18070094008563    0.88527569408963    4.00988272854965
C         1.43765822590386    0.80522561114794    5.37046133780319
H         1.44281332135516   -0.16581753226166    5.84321862373188
C         1.66978480089723    1.93736489250839    6.13736159307570
C         1.65785919416211    3.17788061054310    5.51452273335050
H         1.82738240941056    4.06765301159449    6.10014142648583
C         1.42316863178188    3.30144848823361    4.15580345610609
C         1.41775187996257    4.64404139000455    3.49119333331327
H         1.59327499138879    5.43167662529375    4.21756114417206
H         0.46631639858173    4.82781369036591    2.99110526572435
H         2.21516271444428    4.68591775059573    2.73759430102443
C         1.93619882574784    1.81618838387860    7.60503901425914
H         2.98856830954638    1.58786502029587    7.77362903974489
H         1.34855677975931    1.01085853044724    8.03907913870894
H         1.70017975212687    2.74294924418146    8.12091666343835
C         0.88866495065501   -0.36059379595795    3.22912818533053
H        -0.18514815622176   -0.54649126927940    3.19781383769636
H         1.35851531139248   -1.21794893007702    3.70266409896675
H         1.25799742040842   -0.28875700195554    2.20883495399941
C         7.25613283205563    4.58937341257938    2.31275181680718
H         7.89971085403604    4.90699066227895    3.10673294502218
C         7.48703228294702    4.42000782738675    0.99334949585557
H         8.37981397338465    4.53828635205747    0.41553575689696
C         5.35556434149678    4.42909653599308    3.81295861306277
C         5.54737245514377    3.44541697062256    4.78039064325335
C         5.07730849795579    3.68578274996800    6.06311166106866
H         5.22937166819040    2.93420726382930    6.82325981782405
C         4.44855006632850    4.87605962023249    6.39674007980515
C         4.26060144864756    5.83224926844727    5.40652761925511
H         3.77406995643941    6.76466991084772    5.65531815102319
C         4.70795493153777    5.62829015185907    4.11194805556946
C         4.54260289338334    6.68471159943015    3.05923794223055
H         5.51086883619694    7.11456213161278    2.79785701475293
H         3.89958434625013    7.48460664538244    3.41593714958131
H         4.10653685760365    6.26447346160895    2.15189065360770
C         4.01788328470765    5.15037378478309    7.80385288548166
H         3.88072095556335    4.22658723853077    8.35879794438918
H         3.09389765572880    5.72409640151242    7.82863496579414
H         4.78308484871973    5.73763499223167    8.31204690306717
C         6.28487731269977    2.18337924590128    4.45609535119293
H         6.07442140037218    1.85514394355224    3.44059023815092
H         6.00571322846937    1.39216413872034    5.14619309127472
H         7.36000614477042    2.34405595911809    4.54579741814123
C         6.20028567273994    3.79297353249910   -0.96810861975778
C         6.35444100955023    4.87724030153079   -1.83163073406591
C         6.34462621913366    4.64303444345757   -3.19950459067369
H         6.47166577516101    5.47837515853956   -3.87334140214531
C         6.21340127893905    3.36215897675822   -3.71587865772236
C         6.05183709345955    2.30462147872644   -2.83232236993401
H         5.96159332703771    1.30024329225431   -3.21949825478763
C         6.04403638641777    2.49626700994764   -1.45918439207469
C         5.85515698634269    1.36038420893472   -0.52605851951521
H         6.54300583118795    1.42779170324901    0.31462615885766
H         6.04724347895521    0.41801070074383   -1.03396723420233
C         6.28500166246515    3.11065445252718   -5.18989015496449
H         5.50387875439470    2.42366873691484   -5.50763767361168
H         7.24355548834319    2.65569250704702   -5.43717385258565
H         6.19616358913788    4.03511610681494   -5.75428602596232
C         6.55430933971671    6.27095059281702   -1.31121635698833
H         5.99384448640430    6.43915712785220   -0.39309793384656
H         6.24799580658823    7.00262643867158   -2.05483432821997
H         7.60816025877007    6.44788098462342   -1.09564252887982
C         4.01279320283300   -0.31553916026685    1.19292107713613
C         4.09947464734261   -0.34346269549453    2.57953472242687
H         4.09813520157141    0.58550945633171    3.12667208434735
C         4.16263150276157   -1.54065742696042    3.27025531270794
H         4.23419487356392   -1.53499666942704    4.34812020965594
C         4.13186763590596   -2.74191386453232    2.58339671528197
H         4.18006926095722   -3.67848729533956    3.11828656019668
C         4.03606674809521   -2.73392344976115    1.20207361533276
H         4.00813634977225   -3.66560168798991    0.65665698588849
C         3.98127255525778   -1.53375652998162    0.51704792820259
H         3.91392017554526   -1.54796241049029   -0.56035933165435
C         3.22991678878621    5.40439546691348   -0.85172587133780
C         3.09028483279713    6.58222202566068   -1.64978633110506
H         3.54844273957063    6.40644525212130   -2.62291841300721
H         3.57823474406664    7.42949175361422   -1.16745567793932
H         2.03411602911676    6.80994918252357   -1.78977530797027

