117
CSD_code = PAKVUV | q = 0 | S = 0 | Stoichiometry = C53H56CoN5OSi | MND = 6
Co        7.58134136813177   11.37348856523274    4.14282467945006
H         8.17433601947412   10.09505549564522    4.30343052347724
Si        6.86794976890944   11.39768875878983    6.29561871636708
O         8.06184242453791   11.74097871577676    2.15878310083390
N         6.92120465215865   13.14902836572999    3.43006714208347
N         4.68636403935631   10.83211702424685    3.84250381322490
N         5.88133062373328    9.24246442261639    3.03537409182645
N         9.52586785687400   13.36143589959536    5.17322054678498
N        10.49511373691713   11.57571487004823    4.49033979511682
C         5.96763711760922   10.46844866639420    3.59814975112616
C         9.27797676922347   12.13815366519002    4.64968262330426
C         3.82018600535072    9.83971058499713    3.45775031816813
H         2.76078607925945    9.92926079226605    3.58941071927091
C         4.57226470882436    8.84040813064075    2.94999134682490
H         4.29650689881634    7.89122290748642    2.53657927212275
C         4.20546032850693   12.10721642549750    4.24838737332827
C         4.28498941158395   12.51440655754953    5.57984784361419
C         3.74056044903562   13.74744524629304    5.92190956087348
H         3.79784764715050   14.07125379517071    6.95144296082128
C         3.12194066182585   14.55918853622610    4.98607743505449
C         3.06694545342082   14.13122936925518    3.66634224734774
H         2.60283275009732   14.76212821346204    2.92183036758726
C         3.60942290439781   12.91656459392212    3.27913851544380
C         3.59154533108700   12.50194316177823    1.83773056742109
H         4.58612838829317   12.18501152044291    1.52502279140274
H         3.28374738891781   13.33378105211520    1.20936239859567
H         2.90463831760119   11.67203455850882    1.66954424760826
C         2.55336458328087   15.89096717740361    5.37258555075673
H         2.36697750030596   15.94025785677642    6.44280104292122
H         1.62190972761896   16.08249435125776    4.84365649939194
H         3.25633145312369   16.68230927523957    5.11097973540607
C         4.94176750420078   11.66002258193302    6.59071414190444
H         4.49518498666117   10.66751949039107    6.56754558682605
H         4.77870821057053   12.06700345505005    7.58741191128306
C         6.90906066442507    8.48727357019411    2.39892870178677
C         7.15147935583977    8.72419508918644    1.04373222773027
C         8.08099382255105    7.93548366750029    0.38730313614815
H         8.27560684521241    8.11450758256468   -0.66077068611066
C         8.75323494306008    6.91068104720830    1.03699675804807
C         8.48391783726140    6.68858377457871    2.37686084764348
H         8.98945283177726    5.88783112480393    2.89660641658120
C         7.56275044616437    7.45833482206214    3.07305218116845
C         7.27096387185391    7.17238905280477    4.51137909847066
H         7.57236498903122    8.01941067286654    5.12545598253935
H         7.81003986280918    6.29012881442076    4.84527001569191
H         6.20531723305817    7.00914721894388    4.66630693435645
C         9.71932371737570    6.05258588183178    0.27755182242963
H        10.54693219178537    6.65426461526886   -0.09468603549832
H         9.22717165006671    5.59990178347331   -0.58268895789948
H        10.11725147833155    5.26109935009743    0.90625892697079
C         6.42516534584385    9.80714084863981    0.30916021829650
H         5.34990372934260    9.75442032525985    0.47974043415863
H         6.61371077576007    9.74177582541918   -0.75933791039265
H         6.78615356648416   10.76961859611963    0.66744841831157
C         8.58935385023573   14.35362446554137    5.56200517400928
C         8.58999400232315   15.57885859731287    4.89571250027398
C         7.72541241141265   16.57293918981306    5.32917264631681
H         7.72131639856033   17.52433162592718    4.81661226851626
C         6.85740049178709   16.36274953042662    6.39117661516997
C         6.86947728087979   15.13157224340906    7.02684113185574
H         6.20021821315088   14.95587525061226    7.85697114390165
C         7.73325461262313   14.11442022183146    6.64060749554041
C         7.73738534078399   12.81305003886354    7.33999354576166
H         7.25122438636432   12.90634271216600    8.30890765116536
H         8.76495170785718   12.49239935386737    7.50369734736349
C         5.93839024075567   17.45201744514683    6.85634719631821
H         5.01160333248229   17.03586558404195    7.24431769137182
H         5.70729606378839   18.13832065133953    6.04479905059995
H         6.41134139125446   18.02367501656500    7.65598041519513
C         9.47903384710257   15.81720245970843    3.71075209900537
H        10.48115848611562   16.11408583283217    4.02229085742644
H         9.07008926952205   16.61110872039630    3.09042844317928
H         9.56453136839554   14.91710435108686    3.10394054701388
C        10.87493784333823   13.55691770034829    5.33182469469335
H        11.27362800059739   14.45901651553068    5.74854206403241
C        11.48370825824090   12.43168169264830    4.90281991431729
H        12.52037706214556   12.16520942903525    4.85742118838546
C        10.82871793362609   10.26274010666818    4.05250170064684
C        10.94025353765510    9.25034912021005    5.00694821366087
C        11.37862434209465    8.00194120462500    4.60007623273576
H        11.46957175527584    7.21227526457974    5.33236579389233
C        11.72580167247898    7.74993917869818    3.27981574583043
C        11.60312824455104    8.77242032699447    2.35387070701183
H        11.87103993888453    8.59234415252222    1.32262330741975
C        11.16269395845672   10.03710630855163    2.71892885837966
C        11.05162853382090   11.13497765583380    1.71175672001076
H        10.00338524807464   11.42249104238782    1.62350910680259
H        11.41165837427038   10.80822428883873    0.73992459325569
H        11.61992134254375   12.01244460142478    2.02164373651845
C        12.26722829967306    6.40641142593716    2.89367875534413
H        11.59557644519544    5.61408515025348    3.21839858522876
H        13.23057129786844    6.24023167533688    3.37630077882912
H        12.40496077385335    6.33361670288215    1.81870143932178
C        10.60526471519024    9.51982122745782    6.44018595344191
H        11.23134255164861   10.31723098791564    6.84122677349087
H        10.75010427809025    8.62832603245475    7.04418900874515
H         9.56588525259865    9.83216520773959    6.52385731881910
C         7.47234056192896   12.86536099164017    2.22424302050508
C         7.36435210571017   13.77647504489354    1.14600789200698
H         7.81789438591803   13.51943724077864    0.20032845950606
C         6.68594254231983   14.95077988191170    1.33945330316926
H         6.58547481590499   15.66293082863973    0.53121806107466
C         6.12604481333035   15.22133846876546    2.58825084433233
H         5.58680827400188   16.13649441766101    2.77260149668645
C         6.27465108145966   14.29354311054039    3.59535946082728
H         5.85820887224212   14.47597241281649    4.57542807293001
C         7.03862943189121    9.88677318678139    7.48765684325041
C         6.25407473479490    8.75739352955260    7.27203253212851
H         5.56260892524574    8.75041767402131    6.44186363127612
C         6.33285659049234    7.64506396178916    8.08871537632555
H         5.70756881251603    6.78466399422409    7.89375342211054
C         7.21271766325858    7.63269592808154    9.15747909311461
H         7.27871560718171    6.76706770541138    9.80109345679230
C         8.00431681356469    8.74248598110830    9.39338907217027
H         8.69324044783226    8.74696486905673   10.22692712901309
C         7.91560137900934    9.84898283863489    8.56670067544125
H         8.54310356094736   10.70171989775810    8.77550739850380

