58
CSD_code = PAKVIH | q = 1 | S = 0 | Stoichiometry = C21H31IrN3O2(1+) | MND = 7
Ir       -0.04987385584405    0.05639622984479    7.49161508694125
O        -3.25920666068696   -1.29184122084655    9.65845477265726
N         0.04261512408353   -0.01992569335555    9.44086229794195
N        -1.92547370979081   -0.68078451876334    7.96502462809514
C         0.99068447470834   -1.99530050834223    6.33380098112648
H         0.16603928901116   -2.43808022194162    5.80030297501479
H         1.78126733179448   -1.57979051717667    5.72980638971242
C         1.14319441027279   -2.17946941899308    7.65553862255939
H         2.06574332274345   -1.93006975426586    8.15787982534837
H         0.45252597971001   -2.78231107865038    8.22493299552465
C        -2.95677673446564   -2.22533043157809    6.31197155875533
H        -2.14887850708337   -1.90312094494828    5.64771230794375
C        -4.21579984719269   -2.43745564422174    5.47622763775209
H        -4.05194636894138   -3.23604220633615    4.75803483115479
H        -4.47557663244337   -1.53469882106469    4.92906435535804
H        -5.05971568123500   -2.71350836741839    6.10356407302258
C        -2.53052007771087   -3.52158058697998    6.99745413027218
H        -2.17880353487825   -4.23131297313857    6.25313113972910
H        -3.35969030581904   -3.98590486062140    7.52552540698517
H        -1.72429771518984   -3.34356605647972    7.70557684442757
C        -3.16966784516894   -1.06602168902610    7.30699140539655
H        -3.54473791299946   -0.20713451797731    6.74039758297817
C        -4.09668517733457   -1.39132503000925    8.50125053812010
H        -4.91246507999757   -0.67287296393282    8.61094092319719
H        -4.51030987836597   -2.39932021291530    8.46667741726002
C        -2.07942221622941   -0.85362701332400    9.24577880877959
C        -0.98906197454007   -0.53033017994942   10.13960047618609
C        -0.92422079131313   -0.67411473182411   11.52061412940879
H        -1.76310060620727   -1.08339709464838   12.05919080403894
C         0.23775132292555   -0.27505929671075   12.17175916919726
H         0.31326333496642   -0.37202473942666   13.24272035525904
O         3.36259908230428    1.21904895426295    9.44409509244865
N         1.81956588387313    0.91453065613029    7.84743626383152
C        -0.36275240000205    0.61598019555767    5.42116855031702
H         0.54915744828734    0.81447906145174    4.86733036556042
H        -1.06365227931686   -0.00719377827526    4.87614611959964
C        -0.87705576335281    1.62023293124459    6.25983271125919
H        -1.94982339407810    1.71352787378165    6.38001113568909
H        -0.34567801018085    2.55647413949649    6.37194459511476
C         2.65139172608548    2.77192810016786    6.41171921683446
H         1.83650617164092    2.55883625105473    5.71518685761714
C         3.85733405365540    3.24136723350406    5.60233861384743
H         3.59793351864024    4.13793068972600    5.04662362070649
H         4.16836430327222    2.47916033811733    4.89223776142075
H         4.70189452130060    3.47649056195371    6.24469164266335
C         2.18151489075894    3.85100619685665    7.38419771405009
H         1.84607028707409    4.72160610144511    6.82744143488263
H         2.98223952334636    4.17155050306869    8.04596676184401
H         1.35173397782802    3.49292735647107    7.99068275433206
C         2.97204157473438    1.44098794621184    7.12387053285221
H         3.26761881560591    0.71380583891207    6.35949402687394
C         4.04602093704122    1.55228066708317    8.23200209520619
H         4.86887102192302    0.84551203656752    8.09928020223048
H         4.45362796410287    2.55774518859632    8.33839551219092
C         2.13312090285793    0.85804344790573    9.10873486653308
C         1.16793326396190    0.36681486389190   10.06870446399027
C         1.30246895722617    0.24949727086128   11.44712083336556
H         2.21409954465146    0.56435443899527   11.92784378457643

