105
CSD_code = PAKVIJ | q = 0 | S = 0 | Stoichiometry = C48H51CoN4Si | MND = 5
Co       -1.69131528775955    2.62455418256906    4.31844567228434
Si       -2.39566413171589    0.53050752208174    3.71118161467880
N        -0.75321406505752    3.69742733245976    1.69430235113905
N        -2.83080981554472    3.16235860107224    1.71197541702484
N        -0.58682707242106    1.96912329822528    6.84846340043559
N        -2.69398491392411    1.54419661802080    6.87739131706970
C        -1.73468275510498    3.21921171183118    2.50306864580577
C        -1.70101064660903    1.98484992611006    6.08701615666307
C        -0.74326910982036    4.23195318224622    5.17873884407726
H        -0.58491265671056    5.09897263311002    4.53428326011092
H        -1.27971645420827    4.58011281524153    6.06662192293984
C        -1.23507941943177    3.90131987026015    0.42043388223021
H        -0.60488828244823    4.23845008712948   -0.37637769977724
C        -2.54012237382419    3.56737627139680    0.43580460126058
H        -3.27673330424653    3.57047673123242   -0.34162611359248
C         0.60422370795888    4.00907066781556    1.95576328866951
C         1.04124969988515    5.31430156287942    1.71437739317927
C         2.40357034994407    5.57192683071689    1.72112823140444
H         2.74724760756430    6.57587771546099    1.51370926282143
C         3.33163496693094    4.56976922395104    1.96575569056634
C         2.86584526397480    3.30918523417274    2.30822612114943
H         3.57044867041782    2.52989175312144    2.55941582202659
C         1.51171874511234    3.01227744665556    2.31720980782986
C         1.02264397015099    1.65745620267459    2.70800242270202
H         0.33853170973583    1.74633563446837    3.56138685366547
H         1.84406252628241    1.01054086442674    3.00425372141228
H         0.47651970401126    1.17858004883598    1.89580931351013
C         4.79816832809692    4.84970286619182    1.83618696339083
H         5.38863347157566    4.08809342414747    2.33789795455780
H         5.05083788016549    5.82431047935946    2.24883677803504
H         5.07664054430576    4.85449739139327    0.78157168163278
C         0.07203546055291    6.43252245442446    1.46165163388883
H        -0.11109109405783    6.56335304474229    0.39494513061090
H         0.47817864174069    7.36675455477472    1.84386629708771
H        -0.88099041218742    6.24101205689868    1.95004510963438
C        -4.15031549948489    2.73727577112229    2.03134748792282
C        -5.14438022217152    3.70140802392768    2.17710609263076
C        -6.46210106819713    3.28562907161877    2.28842975451093
H        -7.24171786114554    4.02668102557204    2.39352797736434
C        -6.79828030919217    1.93994402297895    2.24108821363049
C        -5.78356578444397    1.00108783027689    2.15055183308308
H        -6.03217608183504   -0.05055541279940    2.13239417445427
C        -4.45086017003574    1.37337675612000    2.04599634046530
C        -3.36266762882307    0.37726995277629    2.01624479410503
H        -2.66525987345689    0.59983439095994    1.21010938611341
H        -3.75594985056170   -0.62479132005880    1.86248029124311
C        -8.23430606571270    1.51007360863277    2.23494814481273
H        -8.86764430199024    2.25111814759604    2.71602187948222
H        -8.35756987760069    0.55484787684276    2.73838064652877
H        -8.57708283482643    1.39252820764144    1.20573191232875
C        -4.78233900284195    5.15584804205633    2.21560755565346
H        -3.98080868655270    5.31557259828159    2.93562293626679
H        -5.64105325021475    5.75546842038552    2.50493591278727
H        -4.43537536902303    5.49915778516914    1.24045373187606
C         0.63736827782007    2.50583011411008    6.39068773072163
C         0.55705500987591    3.65867545763341    5.58054662754763
C         1.75751761438606    4.26475816982727    5.21331820507785
H         1.72247807340303    5.17205929730848    4.62723073302161
C         2.98437084131227    3.76111628633213    5.61204256015010
C         3.02190368683191    2.57358966022103    6.32681576317987
H         3.97603943590774    2.14639770893810    6.60175325217049
C         1.85684449914191    1.92355945746658    6.71614159820003
C         1.96840086098677    0.62375997732786    7.46072436766461
H         2.09426626625746    0.79440745121191    8.53106533131314
H         2.84332794011768    0.07887734579076    7.11109047412505
H         1.09217194524592   -0.00228828998939    7.31008661278356
C         4.25844883866610    4.48970691236240    5.31035013012207
H         4.68104628689365    4.89139998104207    6.23191181484719
H         4.07976022157262    5.31298592366619    4.62535452017030
H         4.99518911572520    3.81756107628960    4.87463769435133
C        -0.88465229560004    1.53058593380280    8.11393961245442
H        -0.15812758472774    1.47376445664271    8.89649158350568
C        -2.20979489415926    1.26162241770927    8.13066860578427
H        -2.83480891321334    0.88107143465838    8.91244637098856
C        -4.06908660254605    1.47823402060853    6.53309882936561
C        -4.94154334348378    2.39240637330661    7.12319127704775
C        -6.29562560680634    2.27896290187234    6.85999704080340
H        -6.98423845344540    2.97475313346307    7.31797952927600
C        -6.78660829900183    1.28436206463513    6.02422905720184
C        -5.89198959697716    0.42297297806444    5.41396379554810
H        -6.26194967164810   -0.34390090274126    4.74951068842532
C        -4.52375728807743    0.49931469131272    5.64858400628234
C        -3.56917867207068   -0.41135996612367    4.97938624591034
H        -4.10618474361799   -1.21239743946136    4.47459030583503
H        -2.91488044766653   -0.86971032349119    5.72022192633700
C        -8.26451759203705    1.16613131647754    5.80482628970889
H        -8.62807269677911    2.02195102401674    5.23837199690712
H        -8.78981286226682    1.15005687393209    6.75880977539865
H        -8.50748015888154    0.25901489090437    5.25830405157598
C        -4.42255359605894    3.48767725180868    8.00705133822036
H        -4.11424678796687    3.10143099030958    8.97861568176112
H        -5.19222150881583    4.23773495264520    8.16877494172758
H        -3.56099040416401    3.96543551699057    7.54349231201042
C        -1.01838218622010   -0.80787009509857    3.56901364915500
C        -0.28946929192597   -1.14519318939009    4.70469986196865
H        -0.55228446389900   -0.68864272886630    5.64979684925260
C         0.75470389587708   -2.04860839544179    4.65959658486472
H         1.30054864402633   -2.29541343918906    5.56049949296179
C         1.10359289080795   -2.63891992378144    3.45625138814680
H         1.92034232176477   -3.34569765496243    3.41231124989755
C         0.39687909056506   -2.31535082819720    2.31120736458447
H         0.66158211921285   -2.77243431410216    1.36713688303823
C        -0.64677721764623   -1.40864556589161    2.37210841666916
H        -1.18723598408373   -1.16894329830294    1.46785939642212
H        -2.89769242794015    3.32058327335527    4.54837437000667

