91
CSD_code = PAKVII | q = 0 | S = 0 | Stoichiometry = C35H46BN8Y | MND = 10
Y         1.15633820959440    6.07576126425044   14.30670191126993
N         2.20256286798620    3.88058152800083   13.81180757499578
N         3.17405471545815    3.94779469199074   12.87323265561279
N         3.41504231171277    6.74315117163766   13.60604485988322
N         3.70871103225582    6.33544555167727   12.34821831169293
N         0.74149752195087    5.70335504096229   11.98674583764172
N         1.74720447705893    5.20161349786346   11.23071529105892
N        -0.55940589478647    5.06145274232795   15.53287878849592
N         1.38159112379013    5.58427719239704   16.56492485504505
B         3.18054160026222    5.01101390365169   11.76152231858163
H         3.88394033420862    4.66060513022456   10.88207382335951
C         0.86659525437133    8.85194573515979   13.39071930934815
H         1.81816332956058    9.10275353433412   12.94070124481069
C        -0.37337611939812    9.05536963170695   12.82102177237586
H        -0.55768541373893    9.38310038765895   11.81101604933338
C        -1.36576346673257    8.77772988550281   13.78309184707574
H        -2.42815625833359    8.86774229865091   13.62408399783902
C        -0.74869412096143    8.40103550794497   14.95693913769766
H        -1.22933765464357    8.21616582599854   15.90624242799590
C         0.67110548918684    8.39526725275938   14.74540494736960
H         1.35673470417744    8.63861385360717   15.55552507531630
C         2.43062107520546    2.78294290224485   14.53460798587937
C         3.58202519782147    2.14381691702509   14.06802389444457
H         4.02403937086296    1.24388674246898   14.44576535794668
C         4.02725863534116    2.91572003931602   13.01227266510396
C         1.54276261785135    2.32321034578448   15.63733290950298
H         0.55392604859617    2.75917320698847   15.52966687561408
H         1.94271123266421    2.61796821517445   16.60747581435268
H         1.46584558848916    1.23710097299241   15.62026813603488
C         5.22914959417496    2.70347862377231   12.16311678248772
H         5.86679747907420    3.58537321718179   12.17655632798379
H         4.94595267029817    2.50556811275559   11.13053611605174
H         5.79233409671134    1.85369712177017   12.53962505963797
C         4.16621884789215    7.82040802102051   13.85131154815550
C         4.94317508609143    8.11939449227830   12.73088893437826
H         5.63797976245727    8.92709797738268   12.62027304724551
C         4.62193735465715    7.15453520341114   11.79542496877894
C         4.16099524750000    8.55791275502826   15.14452248240928
H         3.57740534332062    8.01886892436280   15.88699801907111
H         3.73525290287369    9.55225539970671   15.00979929466516
H         5.18165405771800    8.67607732328650   15.50753847390798
C         5.14053357036205    7.01467602651724   10.40958974353478
H         4.31957565194064    7.02010090748725    9.69503606702085
H         5.68848944083024    6.08147855102827   10.29013704742108
H         5.80725373367476    7.84363590491517   10.18766045946035
C        -0.34928863818454    5.74284145309112   11.21872359445287
C        -0.04392672699139    5.25469387422234    9.94738822202395
H        -0.70790123001363    5.15958230931217    9.11234047721226
C         1.29594850054081    4.91987656425347    9.99439257231091
C        -1.66188534950983    6.25088896318862   11.69592931690165
H        -1.60695537510417    6.49649140537125   12.75708766933667
H        -2.44305803215023    5.51097869633337   11.52194021947562
H        -1.92978752670665    7.15417313351489   11.14913886115203
C         2.12268372076240    4.33777692106357    8.90407568464372
H         2.52908445535570    3.37349843752961    9.20324109023890
H         2.95474219453234    4.99256011093348    8.65257626664325
H         1.50550058324542    4.20039752182886    8.02016165193476
C         0.14228503069864    5.11550752251030   16.65806579255154
C        -0.40190598437261    4.69082609343275   17.90962427048580
C        -0.86766127378508    4.38939087793814   18.98275367923919
C        -1.41752740244183    4.02606842140269   20.23194067034522
C        -0.58460330568422    3.80360430941971   21.32974576741152
H         0.48446842536949    3.91096820222694   21.21495102929481
C        -1.12987903599214    3.44983745097370   22.54842780020302
H        -0.48286815228273    3.27720345627385   23.39626151954845
C        -2.50267355878201    3.31700908886520   22.68702675071940
H        -2.92468502045966    3.04130557738212   23.64216511052878
C        -3.33379755207160    3.53910453350536   21.60011090668476
H        -4.40377325231811    3.43731419095873   21.70918203058462
C        -2.79939795241904    3.89095998918732   20.37609450115489
H        -3.44035724501431    4.06690767963853   19.52433586116935
C        -1.89494365389773    4.48827559918955   15.54783135419103
H        -2.02692255315440    3.85943965954043   16.44462513183850
C        -2.06956752865380    3.60328783415063   14.31012016211331
H        -1.45193822183411    2.71058102971462   14.38726862578597
H        -1.76828977482165    4.14924475464479   13.41910718595148
H        -3.10798051620056    3.29563356219602   14.20899006393654
C        -2.95879358424812    5.59098164587864   15.58792850541199
H        -2.84855346426768    6.17640822992069   16.49835018384811
H        -3.95582572999329    5.15595373362258   15.57236573009835
H        -2.84693822754072    6.25626124436495   14.73543611276016
C         2.24008047916891    5.56864221728308   17.73550988100975
H         1.91688187435900    4.77572887196761   18.43181261696665
C         3.67352812096910    5.26244968636589   17.29360530379486
H         3.73325292499252    4.26000180998680   16.87469898830577
H         4.35296045991705    5.32784793000587   18.14087800947993
H         3.99122660616779    5.96514692727830   16.52572101942926
C         2.16211217428210    6.90381063374336   18.48729511670894
H         2.80538650615245    6.88557622720825   19.36426801418992
H         1.13821731731699    7.08541658763937   18.80759175142532
H         2.47126784589584    7.72359149842225   17.84257487868310

