72
CSD_code = PAKVEE | q = 0 | S = 0 | Stoichiometry = C28H34BN6S2Y | MND = 10
Y         2.18554841209647    3.14062397847490   15.60339712590509
S         1.31878163287872    2.06703821560189   18.03366412322686
S         2.61482548029542    4.69404839924792   17.94718627031589
B         0.64943564980130    3.77625169422490   12.71856350902147
H         0.14765060150116    3.97341346023122   11.67187248632396
N         2.62855089339522    4.75214104149455   13.97294921810268
N         1.99357451026906    4.53707203523717   12.79502952351331
N         1.08261166014302    1.71782035424626   14.14586912730106
N         0.83326097048772    2.25382018729001   12.92338794766007
N         0.06859443312921    4.19291843792977   15.15973121577051
N        -0.25948996580773    4.30198014659619   13.84857247397959
C         4.52740946222767    6.10336505425999   14.81756265147225
H         4.08682363684369    5.92471928337371   15.79893301979435
H         4.69781456421230    7.17147647213278   14.69523304837534
H         5.49401656692563    5.60147073792660   14.76313159310764
C         3.62435879290366    5.61055415287813   13.74190335358777
C         3.64224327595840    5.94583967784740   12.38750452395051
H         4.32304316462852    6.60746426805407   11.89180734198556
C         2.59165657064992    5.24757254688412   11.82014361764075
C         2.16811872898381    5.24299268897492   10.39569357018840
H         2.15221544039997    4.22864062378553   10.00241838351039
H         2.86456882358268    5.83723276066175    9.81043811909619
H         1.17022940015255    5.66377867616844   10.28627858597631
C         1.03070115796509   -0.51836847132305   15.21385759786468
H         1.32741362494194    0.03091148975089   16.10736353243406
H         1.77152179253076   -1.28929757591660   15.01085470535044
H         0.07467455991058   -1.00768644837435   15.40006602036073
C         0.90720100302341    0.39875526266920   14.05024112778776
C         0.55840639847697    0.07184450334350   12.73867030788677
H         0.36067313988101   -0.90427923396374   12.34493953577755
C         0.51879674732890    1.27266811274919   12.05543093528152
C         0.20303908529956    1.48988576495582   10.61933542958973
H        -0.72020567422240    2.05530894193048   10.50541683040489
H         0.08662857151440    0.52838627204038   10.12677159368796
H         1.00127831980960    2.04330862144567   10.12925237242231
C        -0.92176250903842    4.80201089230684   17.35066881895746
H        -0.85109468329964    3.80056338920231   17.77782857565166
H        -1.83772900826425    5.26949549859008   17.70253891726314
H        -0.07104707433063    5.38494106094008   17.70677566242893
C        -0.92538963327116    4.73736621980397   15.86469877691117
C        -1.91053192634432    5.20631723152534   14.99560774182496
H        -2.82848874903991    5.69197783692851   15.25736303725397
C        -1.45278667110414    4.91216741978133   13.72483103614822
C        -2.12211116870234    5.19890966891889   12.42872059478154
H        -1.50174204363012    5.84228718667681   11.80750000488278
H        -3.06842480228173    5.69901089025339   12.61628598943895
H        -2.31399539672915    4.27816342926680   11.88085140979864
C         2.03664321216782    3.37505353072667   18.81082212745523
C         2.23914099051191    3.32190905130101   20.29169436334237
H         2.28015726527079    4.33223957724434   20.70018098401006
H         1.43459194048038    2.75347679110811   20.75928400515167
C         3.56265788603870    2.61844263914316   20.48931816397847
C         3.60755522025939    1.23875629202926   20.63365380853694
H         2.68741459512725    0.67285463498269   20.64261065057505
C         4.82441351745458    0.59025644488261   20.75000901774230
H         4.85127366367790   -0.48374878354954   20.86081038544653
C         6.00414224431295    1.31418177288874   20.71295692684242
H         6.95365301359216    0.80643964363861   20.79608320815900
C         5.96368860601011    2.68967449409271   20.55807174524838
H         6.88172237921151    3.25749503724997   20.51963699379536
C         4.74793392617758    3.33961930351688   20.44244743172406
H         4.71441155799351    4.41057416076778   20.30336554504137
C         4.13144250292623    0.39241726025715   15.96255310508923
H         3.98111125699695   -0.60894632916223   16.32931406592495
C         4.39206370020516    1.50623950187708   16.74925616825680
H         4.53555351222401    1.51273871040784   17.82009151634718
C         4.53807039535622    2.63478324792571   15.89273637792330
H         5.08989603084937    3.52913152043161   16.17155112490416
C         4.39425759178123    2.14726156862370   14.54289676085966
H         4.64964328227418    2.69892804161412   13.64441705501022
C         4.13736207748232    0.77833677127800   14.61306841479932
H         3.99573186555557    0.12170225975337   13.76902867004957

