57
CSD_code = PAKXEF | q = 0 | S = 0 | Stoichiometry = C18H27BN7OPSW | MND = 7
W         6.74116812990380    7.54039198865596    3.43749581012311
S         7.76269906600879    4.54445544156561    2.12227179351475
P         6.39783048479635    9.48266850983308    1.94417179263895
O         9.58866586174327    7.55437752744831    2.67268541710706
N         7.13464235915722    8.95629292497757    5.00659986631499
N         6.45029749338253    8.92750701823035    6.15077541521189
N         6.96455038388484    6.24097573469490    5.15584818932246
N         6.27555314549978    6.49830936300334    6.27263791919086
N         4.66508075935704    7.74459149220900    4.06067764925909
N         4.37361913787969    7.83411331523102    5.35841735569449
N         8.44551849864571    7.49125409703410    2.98811888676677
C         5.18757252270167    4.68362053989754    3.12426647042935
C         8.07879613108312    5.49603912550141    0.68757238185442
C         7.11604380499424    6.40983458986746    0.47432301213826
C         6.08675542508597    6.46700772791850    1.48997548126014
C         6.30389930361159    5.50731274383919    2.52467388866140
C         9.32317640425826    5.25427312689026   -0.08956535525573
C         6.91899010602741    9.86749292845420    6.98708999422511
C         7.94963175976940   10.52964985337526    6.35485425496615
C         8.04988089281150    9.91082742741598    5.10875315697733
C         6.60828100968592    5.61083917932167    7.22584694495493
C         7.54842397100024    4.75140121369575    6.70354341756525
C         7.74412004357125    5.19841233839469    5.39594207330110
C         3.05534133322431    8.01292982665402    5.52635336635495
C         2.46395695856000    8.04152321880436    4.28119912676649
C         3.52445077809080    7.86975584544742    3.39329340301450
C         7.93913414371883   10.05413271379676    1.14191250627781
C         5.25892582992899    9.56272968845674    0.49589694684756
C         5.84288998120183   11.02684617472891    2.78313913340278
B         5.46130010284720    7.78425652916617    6.43423676490535
H         4.30923263252091    5.29773196882857    3.32316950655930
H         5.50412654047805    4.20913365268864    4.05348059379287
H         4.99273382260620    7.87451153372944    7.51658389336345
H         4.89694203388899    3.88982918272686    2.43185384495202
H         5.06935366300882    6.69588701866114    1.17464631084666
H         7.11914579175917    7.05565113253049   -0.39149677778222
H         9.27261385066519    5.76625606054099   -1.04824086830888
H         9.47245823538222    4.18882333909681   -0.25613165471509
H        10.18156483133950    5.63419529667749    0.46505946582885
H         6.49888910268280   10.00342257439949    7.96279683664458
H         8.54370916748568   11.33427640701579    6.73638045625360
H         8.74342161010468   10.10224078435783    4.31075517212289
H         6.16088689280798    5.64778517896994    8.19847178503124
H         8.02642098783362    3.92677094214272    7.19029767403756
H         8.39995093005495    4.80676492862833    4.64224324711913
H         2.62574798651051    8.10669253919628    6.50269964081142
H         1.42678671539134    8.16611668313407    4.04706992641791
H         3.49054595911611    7.82296392210272    2.32087713686262
H         8.69623420679462   10.22826622328271    1.90295809744711
H         7.77317526716548   10.96637358310526    0.56899366927544
H         8.30004271201235    9.26200075242832    0.48816197151014
H         5.48285071932572    8.75952975146664   -0.20103704592530
H         5.37985042001282   10.52077189267688   -0.00936468541205
H         4.22699539154895    9.46817750492760    0.82790760051460
H         6.54334123793749   11.29198006824926    3.57216200360357
H         5.77209270312903   11.84895428145049    2.07144178903778
H         4.86389076600428   10.85487059247646    3.23045334631886

