67
CSD_code = PAKXAD | q = 0 | S = 0 | Stoichiometry = C22H38O6Pd | MND = 4
Pd        3.07577686705530    0.00023031027079    5.41258439460697
O         3.51355894926441   -1.26408711344895    3.92110158648274
O         1.39106938376015    0.57911664904253    4.49619755220202
C         2.81986502051146   -1.46147525616974    2.88014862371385
C         1.62341891222785   -0.81302470998912    2.56920122810861
H         1.12227238010610   -1.04289951834660    1.64580719228991
C         1.00717060363081    0.14650453593175    3.37291618058095
C         3.41146483422931   -2.52053020428205    1.93590467725061
C        -0.33070664203035    0.72129632108439    2.85121931833738
C         3.48663058258832   -3.82833840683309    2.73564832389348
H         2.48687696453637   -4.17487164411409    2.98978299306042
H         3.98403188457740   -4.59918723610578    2.15137899130453
H         4.04255040809006   -3.66817132436252    3.65599122407010
C         2.60911956238044   -2.74972480228280    0.65776287085272
H         3.11112311817612   -3.50417362375246    0.05491440348606
H         1.60727725717975   -3.10877978311311    0.87924395606075
H         2.53827003834641   -1.83945511710312    0.06768268403941
C         4.82927941091728   -2.05862183693598    1.57416205889869
H         4.79110760612300   -1.14333139434204    0.98682820791123
H         5.39846812867638   -1.86597175387113    2.47995234187533
H         5.33816621067869   -2.82387144270332    0.99249997316405
C        -0.65109881793129    2.03765162033037    3.56488629063370
H         0.17306392160550    2.74039307023111    3.47320051261495
H        -0.81110868845939    1.84381229194547    4.62089282370366
H        -1.55004996087855    2.47452095604317    3.13613038374444
O        -0.31269974915597    0.85618826851462    1.43722924990822
C        -1.41991183437537   -0.31630030685029    3.14961162949488
H        -1.22351174293955   -1.22535058822223    2.58934261896770
H        -2.38646200333309    0.07691178202102    2.84674169565417
H        -1.43704355172993   -0.54459442683101    4.21099532555422
C         0.59522820129562    1.80035505734303    0.92159625940111
H         0.25043715179124    2.82680574967345    1.08442048019440
H         0.64735043143047    1.61122033769678   -0.14970901369535
H         1.59242647818681    1.68202722832854    1.35899583776309
O         2.63728778519793    1.26366457645249    6.90464327406141
O         4.76034931104391   -0.57882127521647    6.32910429979533
C         3.33084370618513    1.46084464382740    7.94573032527231
C         4.52776326150299    0.81299678615933    8.25629551956031
H         5.02900129924593    1.04294700532391    9.17962483831359
C         5.14445975416936   -0.14592258133353    7.45219228613484
C         2.73946180844022    2.52014844351527    8.88983784495491
C         6.48226007728171   -0.72092435558935    7.97387678935387
C         2.66406997755051    3.82806049904895    8.09026721275651
H         3.66375126912320    4.17477216485099    7.83607945204206
H         2.16658595403348    4.59880863407325    8.67461336440312
H         2.10809902469531    3.66787981095766    7.16995777088339
C         3.54184379718170    2.74941683647302   10.16795271083810
H         3.03980307619746    3.50374977895924   10.77091859381242
H         4.54363663490524    3.10858841676841    9.94644073226703
H         3.61284093478140    1.83910962883106   10.75794964770995
C         1.32176584658320    2.05796220078559    9.25162545822165
H         1.36008622440425    1.14262801462901    9.83889064079696
H         0.75255714179734    1.86532066112507    8.34583865308197
H         0.81284347177707    2.82312586001740    9.83336108047217
C         6.80270752603774   -2.03720640851717    7.26002871091323
H         5.97864571505742   -2.74008758823716    7.35158866807972
H         6.96270739652563   -1.84321508008010    6.20404876187270
H         7.70171574696510   -2.47402504846808    7.68870065104225
O         6.46442695038240   -0.85582013799296    9.38787948691799
C         7.57096984793048    0.31713987901677    7.67532684668257
H         7.37457556435327    1.22608142568140    8.23659015823465
H         8.53779137178091   -0.07676516747865    7.97752400768995
H         7.58723740448308    0.54568470714251    6.61353870703432
C         5.55687033133290   -1.80029808376670    9.90358548816333
H         5.90184926155859   -2.82666109720020    9.74062051814184
H         5.50491200413320   -1.61129153016141   10.97491442743156
H         4.55956920683093   -1.68216530839506    9.46639019693593

