60
CSD_code = PAKYOS | q = 0 | S = 0 | Stoichiometry = C23H23N6O3ReS4 | MND = 6
Re        3.11196096854028    1.89316336209841    1.36431425154248
S         0.99264468714169    3.32275010191501    0.82861540653731
S         3.28878756249142    5.45570992111470    4.41069142070003
S         2.11548556411435   -1.55270232684874   10.16419595364599
S         3.70296446662632    2.00980024223568   10.67564631435015
O         1.84850468929239   -0.32419502788250   -0.37079592513091
O         5.30743603801558    0.10308568378668    2.61985426190340
O         4.93748044383012    2.99343083969809   -0.87239322659426
N        -0.54616143925674    2.96255803777476    3.01023579518834
H        -0.69668670209031    2.43831164483781    3.86280185835699
N         3.77228085939984    2.98162084770981    4.00795630009239
N         3.58287894947213    3.49169391484905    2.79348645279876
N         1.22304178215525    1.29035340778567    4.05169061555491
N         1.44555128093719    1.76180874257049    2.80387960764662
N         3.19352649152002    5.52464409360500    1.69478640448960
H         3.01536064450716    5.00122704822252    0.84267085713905
C         4.48377388982478    0.75636987046265    2.15504592621623
C         4.30278970428258    2.53404687685051   -0.03286295325558
C         0.56301093561643    2.62651335675595    2.33589498523927
C         1.98978444731551   -0.04697830276870    5.86982908727452
C         2.84158900377684   -1.08054566219363    6.27599561400306
H         3.50156936779239   -1.53859636516057    5.55384529053875
C         2.04505581980572    0.42736299797325    4.51262018838832
H         2.85575215717184    0.04715007321989    3.87657533201475
C         1.14695782511602    0.53069210541864    6.82177896479015
H         0.49257220330454    1.33404734401960    6.51882554681020
C         2.84493628485725   -1.51416892247087    7.58028013527408
H         3.50011425573874   -2.31286930064263    7.89426908404831
C         2.37349166684120    0.47529872744909    0.25962185730230
C        -1.59851429511017    3.80154261439098    2.51094974762320
H        -1.83501726571754    4.58201363814398    3.23768185430800
H        -2.50248931531681    3.22088373681777    2.30820794954403
H        -1.26407592396192    4.26518389935594    1.58334703902452
C         1.15400472353816    0.10605079056755    8.13342495522200
H         0.49691873054280    0.58214142546458    8.84393986509586
C         2.00498691628483   -0.92155156686414    8.52446550804078
C         3.33863185441493    4.78705912924500    2.79716322832991
C         3.64747229497518    3.80401206952346    4.97945112776009
C         3.24914563688738    3.43834040245947   11.70417761359613
H         3.95543945770303    4.24710623036106   11.54306378582783
H         3.31600229244461    3.09033898811579   12.73033359149739
H         2.23196033214649    3.75335406621548   11.48916854609832
C         0.96454416777741   -0.52360397668760   11.11659295547945
H         1.28156279343976    0.51388197504459   11.07024130037145
H         1.02977110676962   -0.88382456044137   12.13842729731954
H        -0.04765176851215   -0.65157215082410   10.74425727438970
C         3.71505976056851    3.44244277798981    6.36960218178610
C         4.18033897860898    2.17095652878094    6.72567448568565
H         4.53876240161753    1.51030712631653    5.95337473089866
C         3.70768019502572    2.64205954513540    9.03487498395218
C         3.27458863250683    4.30812367069661    7.36798744123967
H         2.92051890511392    5.29544911681995    7.10447959904180
C         3.26544987326950    3.91378576835151    8.69021056651114
H         2.90562547931150    4.60184034188254    9.43825064887846
C         4.17764326212202    1.77984038865722    8.04214900403699
H         4.53129990708376    0.79996791497595    8.32265249551004
C         2.76357958893595    6.89710446980647    1.72341026926059
H         1.69087397246971    6.98450874382836    1.92585905592712
H         2.97895238423363    7.35035650179208    0.75865119087937
H         3.31138107265887    7.43261706170254    2.49997429998706

