59
CSD_code = PAKYUX | q = 0 | S = 0 | Stoichiometry = C22H26Cl2N2O6Zn | MND = 6
Zn        3.77338829096498   11.15739200399214    3.58522832075325
Cl       -0.57711199335425    6.03259019730870    1.17338198831979
Cl       10.68520884393791    9.38004339943199    4.64168971413778
N         2.91990722867621   11.28439398527394    1.75818644911005
N         4.77517501068377   11.57389235200572    5.27683401962474
O         2.33231697592398   10.07087450279478    4.21550568425159
O         4.69014342557213   13.10301034489191    2.72050114964820
O         4.81776803335022   10.12697435040977    0.19102611078390
H         4.87254152527626    9.75850250305524    1.09413516843285
O         5.13615310948741    9.96913067848852    2.94274095033096
O         2.42920519372389   12.81652960412270    4.63537287951962
O         4.27624567344034   14.58225966836301    7.38556174433275
H         3.32487971198430   14.72479711562795    7.33319385184494
C         1.64635112562274    9.24992477633575    2.07693450098942
C         1.73029437620350    9.18846590795700    3.49987565844411
C         1.07387168731476    8.10565761710426    4.14213828413476
H         1.14299501787881    8.05291175514882    5.21828166981831
C         0.37899930188741    7.15650690884989    3.44436925645143
H        -0.11390837937450    6.34467819268312    3.95726421405863
C         0.30863887254083    7.23761457253264    2.05064789500437
C         0.93287706630257    8.25619131442155    1.38118707736663
H         0.87990914179006    8.30560966459117    0.30346544524983
C         2.27910586002196   10.26287624983462    1.30039605809128
H         2.17055201271022   10.13512426058491    0.22378469745915
C         3.56851832865182   12.16977094910516    0.81481925446181
C         3.91549801275872   13.44970254634829    1.58822831813182
H         4.48933910610881   14.12760368424864    0.94243084338047
H         2.98406599824748   13.93915608723150    1.89401897736277
C         4.90197933613403   11.51004687079233    0.32120052483467
H         5.14046778562563   11.91313706415531   -0.66710433751161
H         5.70000222908539   11.78552328301924    1.01940548259013
C         2.68410766131048   12.53321954933151   -0.38405290050295
H         2.66171527254974   11.72409760006006   -1.10781167178414
H         3.08575153799863   13.41433384421302   -0.87839578003879
H         1.66858839174614   12.74709100856872   -0.05670559945307
C         6.82122373628091   10.47368639906998    4.56538627612571
C         6.34603942308228    9.87494643829222    3.35925246976982
C         7.28374268540275    9.13083578366286    2.59063872376536
H         6.93000267609563    8.68025147182324    1.67527848424919
C         8.58704864877583    8.98285890283056    2.97331676478681
H         9.27818315506486    8.41530802316368    2.36923170101767
C         9.03103987166764    9.57295380182406    4.16216095117597
C         8.16940966449538   10.29657047496420    4.93993864462272
H         8.52277407630151   10.74744768633730    5.85592307050559
C         6.00879354453587   11.24271902915277    5.44178895297393
H         6.52559662850185   11.56761656772208    6.34892644910950
C         4.11975780694556   12.35681161992590    6.31423605521593
C         2.62106017400088   12.38644762889065    5.97387325706298
H         2.22983286376970   11.37676973824813    6.10463553841666
H         2.09278982975242   13.07033720932832    6.65401218523964
C         4.68661470785744   13.80051052798986    6.29965580401097
H         5.77680459142573   13.76357121321821    6.35952583032165
H         4.40599597426417   14.27436029142303    5.34852186470569
C         4.28386078707983   11.73680651742161    7.70729160816773
H         4.08065636702155   10.67023276381986    7.65764003953265
H         3.58857255927286   12.19913192161687    8.40278146378734
H         5.28716467354091   11.89178492928308    8.09249598123140
H         4.67437874100754   13.83869961063663    3.33967386851342
H         1.62771604106882   12.38940703647918    4.31547811606306

