48
CSD_code = PAKZEH | q = 0 | S = 0 | Stoichiometry = C17H26Cl2NPPt | MND = 4
Pt        0.34479648736444    1.11503109743730    2.94879751926849
Cl        1.84408731559340    1.32428623852809    4.67883373517980
Cl        1.06996072435777    3.06128853222979    2.06607543643684
P        -1.20406548522165    0.83911844109219    1.33347586613029
N        -0.39388892413556   -0.74880006413801    3.78807348950438
C        -2.17685922164521   -2.56654351474356    3.32651471112116
H        -1.49834764072618   -3.41961202080176    3.39205319017281
H        -2.71641087846433   -2.50150710679838    4.27420371681185
C        -1.45933796719984   -1.28425590982728    2.99615721872225
C        -1.93177155150507   -0.73843331335883    1.85180397631850
C        -2.95677125350257   -1.61649267287267    1.29520339024484
C        -3.70158225126607   -1.55111219770687    0.12812957192476
H        -3.58021424809699   -0.73849266287358   -0.56951479388362
C        -4.61256284544816   -2.56034032642466   -0.13787779854062
H        -5.19903938523499   -2.51972006253614   -1.04356204443611
C        -4.78172701330585   -3.62126978755146    0.73833281084976
H        -5.49975192271990   -4.39431740079963    0.51031440981327
C        -4.02944198953067   -3.70284423536384    1.90146710797608
H        -4.15296547805680   -4.53479709610181    2.57903959318462
C        -3.11811293923460   -2.70416574918527    2.16953841387692
C        -0.73453456134543    0.59525058548377   -0.44047017817967
H        -1.57555212194669    0.16423292761081   -0.99409443999159
C        -0.32110816651043    1.93045483542435   -1.04950763287543
H        -1.17635790869130    2.59131773719974   -1.17367304348841
H         0.13194259751653    1.77231164504723   -2.02645267446748
H         0.40497078587390    2.42269081516581   -0.40315682087600
C         0.43045336379727   -0.39184144891163   -0.42627805969303
H         0.11328321874541   -1.35953592219450   -0.03689303799030
H         1.22871165403964   -0.00047877471926    0.20879518652565
H         0.82701445145983   -0.53698298221958   -1.42901021470396
C        -2.53688156230253    2.12370379521145    1.42025919094614
H        -2.03202651773027    3.03802967737787    1.08230229245905
C        -3.77332708047695    1.86973916320008    0.56884707051184
H        -3.51336420841180    1.73563560606770   -0.47882384083621
H        -4.44522614927875    2.72378149890717    0.64029371781302
H        -4.30832546863433    0.98925769661266    0.91839781898693
C        -2.88932795406758    2.28979513427605    2.89701727207294
H        -1.97472823054748    2.44666157425226    3.47953566349338
H        -3.40132112797909    1.40308625317783    3.27114170751108
H        -3.53901239773658    3.15006156457339    3.04270548478583
C        -0.83534877554410   -0.51504207015927    5.16777770282373
H        -0.03562821377969    0.00105315008182    5.70024536612474
H        -1.05738214073086   -1.45683815627670    5.68043730348100
H        -1.72510688170606    0.11445683311816    5.16359038595535
C         0.75305481777700   -1.66683726464164    3.78353687744919
H         1.58084511500397   -1.18282855555819    4.30324101685072
H         1.04830970210760   -1.87534290635736    2.75462900220665
H         0.51418022907580   -2.60761259995409    4.29104736242787

