98
CSD_code = PALBUC | q = 1 | S = 0 | Stoichiometry = C42H49N2O3PRe(1+) | MND = 6
Re        5.65802007976754    4.38546351212660   11.72161620210140
P         4.01728991758450    6.19600674316009   12.38077091706336
N         5.86172510046254    3.47955694781196   13.71437197224833
O         6.05159083336921    5.91448389771982    9.06136040608047
O         3.21524735812831    2.57551845481105   11.15048836805551
C         4.09178612941219    3.28919227635815   11.30358973873538
C         3.88626930010064    7.52292795807405   11.12486274490014
H         4.83535094207081    8.02448732718149   10.96415412169758
H         3.13848771835218    8.24804712888577   11.44646395304351
H         3.56779623212966    7.07444513717833   10.18445638149911
C         3.50094171893571    3.90804543681969   15.32290034018691
H         3.79106245305948    4.54649041315586   14.47649040200895
C         8.87581653383342    5.18123393292781   14.62083509030662
C         7.48969555425490    3.56199586604964   15.64102348860988
C         6.96357548425548    0.83627256671803   13.21739942947772
H         7.28428874682649    1.78567494185282   12.77097136801268
N         7.45399954742844    5.35085428297887   12.54243355327899
C         9.99819437463120    5.97904677086257   14.59095216558057
H        10.21305352960286    6.63459182467461   13.76196702867930
C         8.66831806084536    4.34234745673996   15.74423825813972
C        10.68236648512738    5.11290468665484   16.76845292227951
H        11.39238748768819    5.10358799116354   17.58128696171873
C        10.88547640448541    5.92744817025888   15.68004359252985
H        11.76228222957933    6.55605443685559   15.64842205358246
C         9.54486036712567    4.27704919631154   16.83181002173168
C        10.89031415972132    3.58750676170204   11.99808366441738
H        10.98849125805325    2.50587681829052   11.94529342010511
H        10.79922432934523    3.87420954699906   13.04437927714957
H        11.79851298462131    4.03218592158474   11.60047634439770
C        10.46237851997827    6.33976282949933   10.63567099489158
H        11.29821566775829    5.87559491884172   10.13783347571057
C         9.50616270160573    5.53878382360246   11.24493991154575
C         8.31760375976034    7.55749859082293   11.91847068492617
C         4.06858228689632    7.13449415954335   13.96727027597043
H         3.13398864992358    6.99111522252573   14.50551532152190
H         4.20215227205470    8.19422366587959   13.75982806352568
H         4.88898356838179    6.79724571824734   14.59796159535441
C         8.04914054127381    2.62337996988115   17.76782775175836
H         7.79911826150839    1.94089978354778   18.56572310472707
C         7.74963951271201    4.93679657140088   13.73166677560329
C        10.37106280524332    7.71635676342649   10.66811494981379
H        11.13133370714585    8.32145341617753   10.19984099410746
C         5.18985691950207    2.35003582428152   14.26711824431599
C         5.72322315025539    1.07171256009396   14.04755659036913
C         6.74172196301687    9.53179676993707   11.98864721905671
H         5.77960173771564    9.85171570649135   12.38421778494955
H         6.65856450736336    9.41954423284734   10.90945310033899
H         7.45506612623209   10.32501761722934   12.19505174000774
C         7.18100761376290    2.69340993378166   16.66444816455873
H         6.30094089901005    2.07045709052177   16.64108841880779
C         8.42541384940630    6.16184743596911   11.88520485242759
C         9.30449829994127    8.31757879510640   11.30740066366273
H         9.24523785792047    9.39272470914161   11.33737623452978
C         2.27688784519806    5.63111994192736   12.29338109217475
H         2.08697537516975    4.79636872125706   12.96068872034270
H         2.07180316432538    5.31195765874259   11.27202398591507
H         1.61739174757662    6.46108006240387   12.54779200613215
C         4.04103226438440    2.52441991185667   15.04825814127789
C         7.17668323556388    8.22365651431690   12.65079138240398
H         6.32837249664507    7.52477545562460   12.63910379178574
C         9.19332016220829    3.37897763839844   17.86450747001437
H         9.83319158191923    3.28933688572065   18.72905720154726
C         6.66854020721363   -0.14350452797454   12.07907520530663
H         7.50476062861842   -0.17189673634189   11.38490026176742
H         5.77678895123557    0.15834721573594   11.53365216602266
H         6.51379262974027   -1.14846233739456   12.46038133991382
C         5.83407688583093    5.33842354964072   10.02151608649300
C         5.07846283639512   -0.01808040816324   14.61648071323855
H         5.47525259208619   -1.00730675950220   14.45556630756245
C         9.66800083236885    4.03750209987034   11.19326368832476
H         8.78472341531924    3.56440081348524   11.63982530769748
C         3.94984791984771    0.14184143738916   15.39435374710064
H         3.47082356897627   -0.71672503023822   15.83800488161251
C         3.43800067176387    1.40687077108071   15.60727771333520
H         2.56263355527919    1.52509204939931   16.22377568944760
C         4.12377146432371    4.48645855146055   16.59821810218119
H         3.67057707899178    5.44661574796795   16.83526774212972
H         5.19716414265595    4.63003006979210   16.49273009476924
H         3.95304753855124    3.81436515725130   17.43615442790423
C         6.88606822369202    3.92440934075081   14.36717714292256
C         1.97702061493011    3.92672708558830   15.44871383129680
H         1.60848574227480    4.94963388215999   15.40109341623001
H         1.66284607477811    3.51488569054122   16.40389214972811
H         1.50878048604077    3.34668039074301   14.65590818880443
C         9.77612436511947    3.55928091239069    9.74337787659502
H         8.96920470737377    3.97231656955353    9.14154691988269
H         9.71657354009665    2.47449380881463    9.70270283193918
H        10.72182585922405    3.86102340544863    9.30305003256017
C         7.55616489260625    8.49557189020785   14.11058566945168
H         6.76344089566222    9.05124986378872   14.60690351181628
H         8.46667919634182    9.08876094537050   14.15642905506751
H         7.72507198633711    7.57280786688236   14.66165553775823
O         7.07070347638276    2.16359285444457   10.10736338549744
C         6.65989160125489    2.95958807257203   10.81321048074747
C         8.11605569396166    0.31876640208164   14.08247795219854
H         8.99520589854739    0.15333411678726   13.46434744549104
H         7.84983128582808   -0.62240096133191   14.55576021533438
H         8.37358216818757    1.03266089482030   14.86293599012884

