31
CSD_code = PALDAH | q = 0 | S = 0 | Stoichiometry = C15H11BMoO3 | MND = 10
Mo        3.76857248328795    0.87284516199831    1.33664701913595
O         5.06883584169086   -1.86673191901756    1.85330100904116
O         6.44779046791504    2.08055549451147    2.24344621689787
O         2.96539944022446    0.89550546314671    4.30743685871410
C         4.57238963105414   -0.84979701058581    1.68125978291344
C         5.44242487619950    1.63493640731711    1.92643700301095
C         3.28113234691734    0.87479783965200    3.20946340407366
C         2.40840727990358    2.82122841406415    0.78763679201833
C         3.51928379440654    2.82297000233417   -0.03082562663392
C         4.04747948753136    1.75708613502484   -0.82209393869117
C         3.60377016285624    0.44634214231931   -0.97177644938967
C         2.49051150011219   -0.22139043266144   -0.37553228654473
C         1.55537386012757    0.27818493303850    0.50755959797409
C         0.19647194299009    2.00325819936986    2.03551585728395
C        -0.49709407540725    3.21534188818338    1.98278730959857
C        -1.54627816329217    3.48828363140987    2.84043394709498
C        -1.92205737267745    2.55708080352901    3.79380361560069
C        -1.24620608489670    1.35116554360643    3.87353920872104
C        -0.21063984453250    1.07739109337749    2.99983226321590
B         1.38933195371145    1.70308243535745    1.06015441783551
H         2.25078068709809    3.76428402770541    1.30954054294274
H         4.09903261118663    3.74541838095849   -0.09785751181805
H         4.92512762621257    2.02028785584692   -1.41180688666694
H         4.18387799899308   -0.16457737639633   -1.66287027842921
H         2.39951698981920   -1.26812180736229   -0.67195709835596
H         0.81965165101496   -0.45956865293863    0.82418323006650
H        -0.21700645028938    3.95232037349747    1.24159985764387
H        -2.06927330160464    4.43160685803553    2.77042297714362
H        -2.73573068569604    2.77091545926265    4.47155614098833
H        -1.52958545548990    0.62129054590371    4.61821934754806
H         0.31200880063589    0.13350810951035    3.08294367706665

