99
CSD_code = PALFAL | q = 0 | S = 0 | Stoichiometry = C54H40N4Ni | MND = 4
Ni       12.33103105009470    3.74280051698385    4.93498195890073
N        13.61414366038334    2.73225494358715    3.85083200085088
N        13.05688748121769    5.41317113405177    4.24200516400890
N        11.09768355000293    4.74700089763809    6.06995529303592
N        11.55772192973822    2.07573810847274    5.57644713384815
C        13.61013975318987    1.38629231778120    3.61306089061319
C        14.77281027862584    1.00035125730007    2.85938584340747
C        15.50038622097489    2.15305058074414    2.65145386475173
C        14.73795179921085    3.22190863347094    3.24107665581579
C        15.03640156465234    4.56312931308586    3.05307641886890
C        14.16453664972307    5.56776354676419    3.45820549354364
C        14.30919497197193    6.93518101977556    3.05561147548881
H        15.09879888156122    7.30849350998141    2.43333913133345
C        13.26231974443058    7.60860038823003    3.58285355659851
H        13.01574092763203    8.64628926368517    3.47397301747520
C        12.51514762418458    6.66454541405581    4.36069320395615
C        11.47344770813396    7.02037602235681    5.20808523036504
C        10.88898799609111    6.09619386638511    6.06861797169997
C        10.02955375743450    6.47308152640722    7.15110886206116
H         9.73770598073218    7.47995122546324    7.37769568250499
C         9.72291964510475    5.33749989084693    7.81809907252375
H         9.12544116236981    5.22480043927387    8.70120247069795
C        10.35329304130603    4.26234806750497    7.11103447915338
C        10.12928815911712    2.91982178862583    7.39182244040069
C        10.65070528776072    1.91402172644544    6.58500104120112
C        10.21917023583947    0.54960094934163    6.65848735401274
H         9.49531225069809    0.17457068539025    7.35536036590404
C        10.86255341225455   -0.11595244430326    5.67309701769954
H        10.78327718829162   -1.15060807048240    5.40283655201110
C        11.72408068868773    0.83266061177061    5.03159246958750
C        12.66976928103708    0.47627565715043    4.07832973621339
C        16.26878631810104    4.95799087894588    2.33378213599662
C        16.22747995009904    5.27993028211678    0.98250187926304
H        15.29108071189300    5.20939798545294    0.44817820905549
C        17.37655832229282    5.68419172490636    0.32791901095662
H        17.33555632782514    5.93772968276340   -0.72195403916282
C        18.57446237081631    5.77317982429421    1.01659126748259
H        19.47088603662882    6.09073845808899    0.50365530360338
C        18.61966820421918    5.45630352869632    2.36359244606531
H        19.55160104550771    5.52842666802824    2.90573360827094
C        17.47224646557854    5.05323209169937    3.02158420691542
H        17.50358488207620    4.80899659781857    4.07325080697588
C        11.01781751148885    8.42287783385034    5.26745525200525
C        11.87354866998888    9.44147310695345    5.67525711599418
H        12.88608727165787    9.19936645614309    5.96428242802614
C        11.42701615384484   10.74938336143583    5.72992953771056
H        12.09838647341616   11.53228815100072    6.05165980139426
C        10.12372201962419   11.05626225452331    5.37611245633893
H         9.77777057447066   12.07856958734543    5.41646346930278
C         9.26441690100431   10.04708508204821    4.97454896959779
H         8.24606711624146   10.28110146803832    4.70022493792849
C         9.70608601048492    8.73768963561690    4.92484896139542
H         9.03866026845832    7.94833344903058    4.61056625749385
C         9.25399877833800    2.53934172623710    8.51724317329542
C         9.76527625487182    1.78215264235276    9.56714431967155
H        10.80500029233196    1.48903864671051    9.54931713089416
C         8.95541224215795    1.41893671779354   10.62749127921205
H         9.36421699659360    0.83678129625923   11.44052672269149
C         7.62360968128696    1.79840275241821   10.64768461705073
H         6.99101178053188    1.51238326396855   11.47499013356651
C         7.10469463842755    2.54251055164001    9.60126993063114
H         6.06442878024978    2.83400070070567    9.60898215545469
C         7.91389357862124    2.91314900627241    8.54265984979093
H         7.50673811098866    3.48237946925978    7.71952114184810
C        12.71296928472094   -0.92291247953669    3.60337793246160
C        13.16708602751915   -1.94372195925041    4.43032198177629
H        13.50856793667703   -1.70650435241657    5.42747656523824
C        13.19574244245204   -3.24834658840760    3.97369534092521
H        13.55631315989400   -4.03557255278403    4.62009928906404
C        12.76055441845362   -3.54701682714486    2.69366889261872
H        12.78119243043434   -4.56753423983003    2.33959697432981
C        12.29615770745178   -2.53564264039582    1.87008238567778
H        11.94972113868429   -2.76583469581893    0.87301571461200
C        12.27363425472042   -1.22899078822977    2.32044722691530
H        11.91378346934285   -0.43726727023573    1.67977559547727
C        15.15519525556471   -0.27782011324055    2.43907642610933
C        15.59302668424161   -1.32223656500838    2.02769490159263
C        16.10794959048414   -2.57579284403327    1.52568416391170
H        15.43301230457403   -2.94960609403153    0.74898106979771
H        16.12220540458044   -3.30704949823048    2.33984691283074
C        17.51889131669927   -2.40055144399074    0.95007821940965
H        18.17930827444646   -2.02742136399005    1.73606709496362
H        17.89310377784664   -3.37495774531590    0.62684408639278
C        17.52787948100921   -1.42706460830898   -0.22160754090890
H        18.53607143755763   -1.30900722234735   -0.61297292021838
H        17.15936804036561   -0.45536725871252    0.10119446045032
H        16.88892784890579   -1.78909598549525   -1.02499018214886
C        16.72147970471250    2.22726431686119    1.97231653360294
C        17.77468673516075    2.13942103068147    1.39283375644643
C        19.02579217872663    2.13144210255072    0.66914216266823
H        19.49810617784771    1.15058705235454    0.78117689233975
H        19.69080650840978    2.88538038898027    1.10189075177477
C        18.80725119884061    2.43302667973787   -0.81802192639213
H        18.15527924526303    1.66894072373339   -1.24693165290334
H        18.29992813504166    3.39543931740396   -0.91065078218430
C        20.12806453868467    2.46865513378388   -1.57485106627998
H        19.95851134998525    2.68150412426910   -2.62781460231341
H        20.64117138669460    1.51190256743735   -1.49763579406565
H        20.77998853143778    3.24021402877981   -1.16984518926971

