50
CSD_code = PALGAK | q = 0 | S = 0 | Stoichiometry = C13H32IrP3S | MND = 6
Ir        1.77851025438654   10.94568417611201    0.22386238729245
P         0.20502187599478   11.66681004578784    1.75545435880201
P         3.08229003661992   12.95517721188810    0.22194305451322
P         3.05706881036345    9.44979937137841    1.59121287401354
S         3.34296946997674   10.10134495689289   -1.47920948818692
C         0.39100607805478   11.12282099938758   -1.35001302614536
C         0.39104688376780    9.75309109618683   -0.90606018471082
C         1.04464709816454    8.73952096764910   -1.74416939508171
C         2.31223842248964    8.87056112754633   -2.14070605292407
C        -1.23605214792931   10.58616118554323    2.13742771391456
C         0.70684216246977   12.07498060339033    3.48273499977392
C        -0.71199747860452   13.21719174874211    1.35916198816451
C         4.87298606726513   12.84798832660462   -0.17077897210506
C         3.19109057662022   14.21066526334708    1.57461109683375
C         2.55599056950504   14.04365744943368   -1.15878306491136
C         2.83076315552624    9.20417898084931    3.40876752627970
C         4.89105640651784    9.56104573859927    1.57173632782085
C         2.85628291729464    7.70103773113141    1.07347381062171
H         0.83284786276979   11.32550869738363   -2.32265640684070
H        -0.51700138059013   11.69835182433728   -1.18844138143680
H        -0.51139902538421    9.39103752272167   -0.41190174943275
H         0.44904777456579    7.89642245480863   -2.07463038930739
H         2.79620853546959    8.21437789049634   -2.84962568526895
H        -1.84349816988751   11.01831365499259    2.93207387410746
H        -1.84146419302349   10.46982937533174    1.24127130375576
H        -0.87562072059538    9.60582800576429    2.44331437743933
H        -0.09001362837170   12.61331608946530    3.99454273748235
H         0.91878880793426   11.15373239003933    4.01807990261758
H         1.60662864840336   12.68421234453114    3.46776041279852
H        -1.42377518816381   13.45644446317163    2.14848484170096
H        -0.00434176128184   14.03495027912719    1.24341081420824
H        -1.24547196526082   13.09039785629901    0.42042155946353
H         5.27467498200494   13.83495000838851   -0.40005546752966
H         5.40699193217872   12.42393111696231    0.67666906323610
H         4.99927997072777   12.18831622363991   -1.02606177722318
H         3.78646772167833   15.06395931402870    1.25221252211883
H         2.19640660597977   14.55234311867390    1.85193475532737
H         3.66087239181502   13.75685095386254    2.44578162353617
H         3.16182496419637   14.94819869486773   -1.20699586421597
H         2.66545958476890   13.47702394619600   -2.08106288785916
H         1.50665091382980   14.30431886516354   -1.03832601462539
H         3.47273119269261    8.40011965398729    3.76715560177525
H         3.08102108543723   10.12260511841031    3.93588562385342
H         1.79258528389234    8.94817050677773    3.61214185586612
H         5.33357978054279    8.68137967820354    2.03868556515668
H         5.22250161407819    9.63781763745334    0.53856775639803
H         5.20027625630070   10.45417730327683    2.11250614249672
H         3.47563429785982    7.04062131331477    1.68042163169701
H         1.80931454997028    7.41890166098345    1.17083063002420
H         3.13883011698283    7.61277505686588    0.02693907472332

