91
CSD_code = PALHOB | q = 0 | S = 0 | Stoichiometry = C35H50MoN2O2Si | MND = 6
Mo        4.39435895470661    3.65921776843035    2.38410737109456
Si        2.83927183338057    7.23578207907250    2.17220407998097
O         4.04780119589128    3.39619042532645    0.68709323656676
O         4.27023885662490    3.69332739658793    4.12994614530356
N         6.16741908250765    4.48001200802211    2.15037406071622
H         0.82726962562765    5.10750378130952    2.47699389318376
N         5.38215300485589    1.24220659451427    2.84085700044493
H         6.39391007421901    1.28146501184170    2.95089150590157
C         3.15697304567572    3.28713212770275   -0.27869781578491
C         3.44163108770188    3.57138139608698   -1.63253200712910
C         2.40335891884943    3.46671773002212   -2.54697788299825
H         2.57768835925536    3.69197188270648   -3.58604205803881
C         1.12860830177010    3.07250992869582   -2.17385703967504
H         0.34789274490648    3.00925334493856   -2.91703933252419
C         0.86523709260408    2.73960558065754   -0.86015809550553
H        -0.11803199979625    2.40558669830862   -0.56109626787908
C         1.86650256490753    2.84650649164870    0.09186066101678
C         1.67005375631926    2.36267485631502    1.47388465382526
C         1.30809259414258    1.02840215360140    1.64050783558762
H         1.14613272901472    0.41767431163924    0.76237240439208
C         1.14219707392786    0.49096690860677    2.90379777180563
H         0.82715232076726   -0.53545336388516    3.02373827073265
C         1.42439825951594    1.26966917630816    4.01320995287521
H         1.35246643621030    0.84867548810403    5.00722877672172
C         1.80116301318148    2.60245603002200    3.87403347536252
C         1.86387252192701    3.19614608848471    2.59618965950413
C         2.18454771269692    3.32945216217680    5.10199759998403
C         1.32364459285884    3.42948651068710    6.18280117500941
H         0.30385700664411    3.08635243346146    6.08238103878388
C         1.77103189586553    3.97514323376096    7.36963183365118
H         1.09965791320552    4.07382330793067    8.20945538390793
C         3.09168027544048    4.37396208456794    7.49383820415031
H         3.41249885857558    4.76613219799851    8.44462090824292
C         3.99488758380403    4.27851553108279    6.44441684153606
C         3.52037868838697    3.78096732094177    5.21033403566364
C         4.84998338263411    3.98248373865430   -2.04408385926608
C         4.99948077374127    4.14487716022337   -3.56022393865460
H         4.35342883889581    4.93346371693991   -3.93797543335690
H         4.77290882115098    3.21651203151027   -4.08012769185496
H         6.02715241519796    4.41897449869035   -3.79069206779238
C         5.85164661039546    2.91357248219114   -1.58120484711662
H         5.89931310486606    2.88645226873539   -0.49235680497079
H         6.84581866316504    3.14640124034001   -1.95830565855100
H         5.56125214493517    1.93220999923310   -1.95499822109456
C         5.18601997574322    5.32041986974785   -1.37493894068164
H         5.08089099698478    5.24341017813055   -0.29268391706483
H         4.51610726998080    6.09700621017914   -1.73637925763744
H         6.20879873806505    5.60967610090348   -1.60996810423708
C         1.82998105705656    4.68247086698245    2.45357789380412
C         2.97077303025469    5.35151249943460    2.31861758592857
C         0.99980354321222    7.77664127460694    2.14254471749901
H         0.49019677096113    7.50711972763513    3.06268241691588
H         0.46272626464686    7.31771533837639    1.31790688178256
H         0.91346917104690    8.85308886291827    2.02734305417666
C         3.60707959017411    8.13073107752426    3.68083166691523
H         3.25351345139450    7.69142286120065    4.60877246619462
H         3.32535579410666    9.17960993519543    3.68571299856874
H         4.69031279104898    8.08319138278988    3.68374944617023
C         3.59551971270639    7.93969881230811    0.56239495079770
H         3.10677176408736    7.51551467126457   -0.30911260321807
H         4.65663645196685    7.73703145753921    0.47813946599280
H         3.46153517044086    9.01673918073145    0.52090949459830
C         5.45081604840426    4.70762856058110    6.58674104301374
C         5.81706159519267    5.08728919920419    8.02552442217683
H         5.65121089364880    4.25557996919351    8.70698105397236
H         5.24480125282923    5.94705508460093    8.36486831643881
H         6.87130285279375    5.35399309062835    8.06760681554094
C         6.38077101605967    3.56432007258380    6.15130092525051
H         6.16081234803466    2.65987754718145    6.71809171396352
H         7.41733015644132    3.84030390768809    6.33699250314093
H         6.26915038977819    3.36224151069861    5.08466461816256
C         5.68549509044890    5.92473526321328    5.68503099405503
H         5.07890531154035    6.76218154630126    6.02164596959065
H         5.41789780529795    5.68847785640849    4.65574881143987
H         6.73229923393028    6.22101918362628    5.71873940192042
C         6.44364830527654    5.89584941208335    2.11953448446421
H         6.89807238262165    6.19491244902031    1.16319107127604
H         7.14966582248099    6.17872650501132    2.91401939837747
H         5.51991274537577    6.44372662202207    2.25617402658189
C         7.42313638179452    3.78085324982586    1.99427824886265
H         8.06489244677586    3.89229295808920    2.88427517348506
H         7.98563823003679    4.18213818962182    1.13739285800026
H         7.25787853776962    2.71892555987055    1.81056255428479
C         4.83988594575389    0.60085928008205    4.03037371210222
H         5.22848795620358   -0.41991569992958    4.15901781191146
H         3.75465111560215    0.54712194676967    3.94646804812448
H         5.09384539195171    1.18794723693532    4.91119708647492
C         5.07588092662246    0.46594496873660    1.64742239674771
H         5.42023164264489   -0.57561212401831    1.73154059469433
H         5.54774029315793    0.92268901862572    0.77812580339656
H         3.99510560650544    0.45817351366641    1.49629117227396

