83
CSD_code = PALJIX | q = 0 | S = 0 | Stoichiometry = C38H36N6NiO2 | MND = 4
Ni        4.95015712176369    3.25373714296731    4.60583766786400
O         6.37580599177984    1.67187406285053    8.09199774923789
O         7.85180959390677    3.44470856640104    1.82018707697834
N         2.89752223501832    4.90124562581096    6.06048325388514
N         3.43481907525290    3.03237224324561    6.97055626125450
N         6.07814745356539    2.71961891102745    6.07848332645267
N         2.81727430784100    3.51397767675149    2.49931607422832
N         4.65690808701760    4.57804970108778    2.18014224842976
N         6.28532716297962    2.70877600245320    3.31962003743843
C         3.68121387528663    3.81080633849659    5.89911457766607
C         2.18479305280646    4.80485492324791    7.22449717821022
H         1.51448588770363    5.57376401822640    7.54856589767873
C         2.52875369433105    3.62664308186115    7.79838882504073
H         2.20502051225196    3.17803941099074    8.71484124386355
C         2.79977675804624    6.03004740842335    5.16193449173284
H         1.84527347012659    5.98375430487494    4.62317024451526
H         3.61726196153118    5.94194775339066    4.43933465451275
C         2.90967364701128    7.33180384396011    5.91215930755339
C         4.07441030733401    7.61529228614619    6.61364180312425
H         4.89136584898649    6.90851187141433    6.60039431432225
C         4.18842795887758    8.79610816956663    7.32344484511889
H         5.09765842263774    9.00883345137735    7.86418247949383
C         3.14195113680362    9.70354271668446    7.33642843906285
H         3.23166719397719   10.62634609302699    7.88959735742723
C         1.97997392483053    9.42602684057232    6.63741082809662
H         1.16161964379454   10.13054317060734    6.64405156577444
C         1.86244250859418    8.24177872731730    5.92987622182672
H         0.95295039003404    8.02702978193822    5.38587955108038
C         4.14556276132709    1.81518716455403    7.24269492731231
H         3.86663881633285    1.03395009309480    6.52941596734144
H         3.91543537873350    1.47339628595571    8.25287909158942
C         5.68239964250348    2.07229612815910    7.16207934346951
C         7.47738397666786    3.14656750789223    6.09316021338062
H         7.98450347398131    2.85235373155099    5.17211379419575
H         7.96408448146106    2.65034798229496    6.94344718817518
C         7.56219631071092    4.63923709848852    6.26456138728583
C         7.11249155260162    5.22389369412122    7.44410190378091
H         6.71555230271893    4.59196716473919    8.22610303781586
C         7.19041130058202    6.59250040013472    7.62496335454227
H         6.85476054905802    7.03193332329823    8.55435480132846
C         7.70583367835790    7.39794559765203    6.62099669611774
H         7.76807875737011    8.46795704964850    6.76012460798187
C         8.14622850951857    6.82502833061477    5.44061032492815
H         8.55239879747020    7.44846355348993    4.65649361485374
C         8.07999577326921    5.45255698059445    5.26464171411277
H         8.44697453301709    5.00796603863040    4.35022003277975
C         4.00026153368131    3.81820799665748    3.07620484224859
C         2.75375951322122    4.06094230970098    1.24597352567847
H         1.90521819334268    3.93384290109717    0.60598444796893
C         3.91671748556409    4.72952744522499    1.04498405733233
H         4.26399928555380    5.28710499682535    0.19973283616736
C         1.78701285650196    2.69461706562436    3.09281142798337
H         0.84865411320689    2.88864880013113    2.56744921264288
H         1.67801352920348    2.99447542457287    4.14183428711729
C         2.11530284185012    1.21942371039974    3.04195159851644
C         3.19913715847352    0.72707071364005    3.75621495161898
H         3.85267673908527    1.42371170167520    4.29654245656331
C         3.47145591822111   -0.62743317346221    3.77088205233129
H         4.30659217624925   -1.00276019327866    4.34130972716005
C         2.67625266684908   -1.50057243894367    3.04790151761727
H         2.88996151943038   -2.55821843455478    3.05667367743511
C         1.61295730839144   -1.01339559951660    2.30925441956093
H         0.99810578201116   -1.68914211237553    1.73377633539993
C         1.32935242301552    0.34156750602380    2.31023884640863
H         0.48811225813418    0.71442213397605    1.74265599865881
C         6.03461811266826    4.92220957575176    2.38050455346026
H         6.15500325327948    5.49596849568964    3.30645343896633
H         6.41552047214408    5.49560169035751    1.53535389213494
C         6.83940082531165    3.58370655351275    2.49555556774482
C         6.85038003727186    1.37180138349203    3.27992597218214
H         6.81838660425986    0.92234012887861    4.27821350539325
H         7.90341561220724    1.45126843492370    2.96700425337371
C         6.15474514882094    0.44869955791355    2.30744875804393
C         5.29778474732658    0.91358302627162    1.32082337115621
H         5.11951646782077    1.97351077347370    1.22283821174004
C         4.67694463067944    0.03554064923503    0.45039108540772
H         4.00754661534711    0.41629834889876   -0.30843614402259
C         4.91411203473820   -1.32323188507727    0.54514455425252
H         4.43060224299806   -2.00894553025230   -0.13537197914176
C         5.78338546105537   -1.79758914841122    1.51350317199320
H         5.98317976755928   -2.85711885554231    1.58800415350743
C         6.39381141105670   -0.91917228059311    2.38810812943553
H         7.06888143364854   -1.29479392160601    3.14475976307807

