76
CSD_code = PALMUL | q = 0 | S = 0 | Stoichiometry = C35H36CoOPSSi | MND = 8
Co        7.52772335080587    9.08476368314114    4.18550633163937
S         8.93935001751952    8.57198570753813    2.52602346881966
P         6.42937114364256    7.25302683127729    3.67281738655596
Si       10.36361598433568    6.33093572761634    7.10992764966621
O         8.11503260927225    8.82948735134492    1.32669103782794
C         8.65701562616979    8.08117138329299    5.26668100616867
C         9.35548679398914    7.42396006503985    6.01063632731049
C        11.67008182213925    7.36253996277518    8.04420349484951
H        12.36303072160725    7.83531657759365    7.35473604638761
H        12.25180798292192    6.74810398133010    8.72589212008719
H        11.20195102263914    8.14925885285469    8.62796089819096
C        11.22802118745786    5.01538862712907    6.02726249384070
H        10.49980741974349    4.35993192775680    5.55855298009382
H        11.90172388758130    4.39509139733958    6.61186929065979
H        11.81019356100287    5.47892532975575    5.23630051241790
C         9.19052547217400    5.46911813843247    8.34477099208013
H         8.71479153831890    6.19135210002046    9.00080649876614
H         9.71648541231443    4.75215875887471    8.96879476022599
H         8.40229002917858    4.93792121142474    7.81900029531376
C        10.13216759677617    9.89847128867473    2.60997703214649
C        10.21985257194355   10.83258544530833    1.58865665183844
H         9.51650467434503   10.77546967596278    0.77046427082339
C        11.19403800972514   11.80987123709346    1.63560317713433
H        11.25832526010234   12.54408016400995    0.84481713065825
C        12.09986547593807   11.86034240634217    2.69111233331181
C        12.01182063211254   10.90223882902631    3.69627321436314
H        12.71401146114037   10.92692351647713    4.51742557477445
C        11.04081693991875    9.91978741353595    3.65905097839879
H        10.96112107444067    9.18012178477562    4.44206402001455
C        13.14898861488556   12.92968859420628    2.72822975709121
H        13.78466729852185   12.86751182154595    1.84560075962935
H        13.77310895881398   12.83350091897884    3.61289437156862
H        12.68645994668553   13.91618364431552    2.73393317734271
C         5.91507341047770    6.17912845163994    5.05434948478572
C         5.95361659985769    6.65420018137405    6.35800979412648
H         6.31966077266493    7.65298494681916    6.54511865121546
C         5.55092657583627    5.84402021703092    7.40508600515634
H         5.58805253667319    6.21538801117341    8.41849504582942
C         5.10958873169650    4.55578023965185    7.15553163738343
H         4.80192706905780    3.92055060650532    7.97310760990498
C         5.06872231055058    4.07790376288373    5.85525938470608
H         4.72523517467585    3.07273383361842    5.65973642398366
C         5.46816859088526    4.88466552333335    4.80629008917134
H         5.43531990017187    4.51384928066821    3.79113320167474
C         7.25369489958701    6.02003112482951    2.61165427800952
C         8.49339857456658    5.55741351014833    3.04957338336614
H         8.90390956010415    5.94633088615551    3.97132765665196
C         9.18353072053849    4.61542741380625    2.31113139585718
H        10.14493795741337    4.26384114223635    2.65496790022401
C         8.64684896507332    4.12842166751212    1.12979511294238
H         9.18896037703707    3.39744086121062    0.54808173933531
C         7.41338000472263    4.58163160333529    0.69571954393690
H         6.99003939856239    4.20179200714009   -0.22284790960015
C         6.71492660070662    5.52401592961935    1.43128536355102
H         5.75286034896870    5.86802598630070    1.08096093141287
C         4.86290507082375    7.57471621543714    2.80503030960207
C         3.62064398066632    7.32909161763492    3.37696465320484
H         3.55598622570234    6.88042797712258    4.35853052179365
C         2.46665524747938    7.65992953854617    2.68662663051141
H         1.50183990550437    7.46505671423389    3.13222659302577
C         2.54564782907787    8.24134134695685    1.43249816244062
H         1.64222798986830    8.49728310429897    0.89843260983193
C         3.78440045999838    8.50436642668168    0.86680779334409
H         3.84660431435894    8.96863972327793   -0.10679082776111
C         4.94071488329993    8.18183943338008    1.55129534129927
H         5.91387247441789    8.40330330637266    1.13170453454019
C         6.98108601406386   10.49496047748760    5.71158078279996
H         7.08279410371806   10.41434865048572    6.78201951106033
C         5.83780625989707   10.20186108782939    4.95714152738003
H         4.88814645829405    9.85720491356833    5.33872897958657
C         6.09793507742932   10.56803299682248    3.60263760062832
H         5.36723807819085   10.56947990092143    2.80962469487136
C         7.38137640464564   11.12102329782359    3.53730282692566
H         7.82684391855843   11.59163808788407    2.67619842511405
C         7.96895917156119   11.01130400895734    4.82326595536060
H         8.91258295440475   11.44235963256080    5.12177061070947

