77
CSD_code = PALNAS | q = 0 | S = 0 | Stoichiometry = C35H36CoO2PSSi | MND = 8
Co        0.27217556399312   16.68414726922093    4.20941411927367
P         1.18861334584336   14.74050935833314    4.61681088906359
Si       -3.18445599862783   15.72846788781684    7.56619195825965
S        -1.06359236996439   15.75785024940199    2.80708403219126
O        -1.88835447871732   14.66293452930022    3.26793346408720
O        -0.19857332691586   15.44756336061671    1.67908909126682
C        -1.02197537951666   16.30637594005598    5.47847787192126
C        -1.85612489848186   16.10754294722764    6.33414108508446
C        -2.50107100586713   16.06613832421153    9.31859804388110
C        -3.68104114037589   13.89500852910343    7.39522857156811
C        -4.68938450109147   16.85081426546542    7.21266305817705
C        -2.24993873354431   17.01288071333846    2.23731947166223
C        -2.23562064844588   17.43937790613683    0.92546675294110
C        -3.15686178903512   18.38719050891989    0.51243570154626
C        -4.08786054940129   18.90706258920859    1.40472536315804
C        -4.08382771262248   18.45609253058448    2.72161002214661
C        -3.16689662419140   17.50922545622389    3.14259983305759
C        -5.06622096355219   19.95183876531445    0.96013857458524
C         0.29950735699588   13.19401493372411    4.26893529590737
C        -0.75148386121737   12.88211159783842    5.12972994462362
C        -1.47847413809761   11.72493678047686    4.93989230772975
C        -1.16777613891259   10.87183140746022    3.89235956478240
C        -0.12551138250648   11.18068503197485    3.03710218441863
C         0.60948205365157   12.33985433956056    3.22007421282327
C         1.62523383295424   14.42557533252993    6.36185184713853
C         2.08741956449187   13.16488525036895    6.73409237195333
C         2.41837565234791   12.90786360321369    8.05094331981549
C         2.28719286683335   13.90265439969610    9.00798681215259
C         1.82593868382406   15.15561486142345    8.64273504753892
C         1.49783710348175   15.41802045867575    7.32336500445955
C         2.78033738256174   14.53979554791112    3.74798158494939
C         3.99130470760256   14.40957542090854    4.41825820419204
C         5.17097520801620   14.29704851314002    3.70193019776764
C         5.15315828848423   14.32031440178505    2.31780512979301
C         3.95057941935474   14.47538368825824    1.64562318045396
C         2.76879320945811   14.59556122054832    2.35363298513263
C         2.00760640323982   17.88500472633590    4.60253112010979
C         1.87246395862149   17.69649670409500    3.19418298004773
C         0.65952554080430   18.26281320712819    2.79273828457478
C        -0.01035686978364   18.73352754316476    3.95144931555954
C         0.86124667943128   18.55225018932776    5.06259348201836
H        -3.22767987302798   15.81658940823893   10.08659249009853
H        -1.60706548204830   15.47789284252965    9.50533223146264
H        -2.23679496885442   17.11179683207175    9.44324182497830
H        -2.90909053488997   13.23998087719354    7.78920086977439
H        -3.82500740510039   13.64319836381581    6.34884491558754
H        -4.60428855345092   13.67271326075159    7.92358117727085
H        -5.48022566187761   16.70526795670220    7.94347608208827
H        -4.41137842429415   17.90049818426152    7.23326698154226
H        -5.10405152094959   16.63917282144942    6.23137793474789
H        -1.51206817049066   17.01719375724716    0.24460049103402
H        -3.15499028560114   18.72498517969029   -0.51418324178782
H        -4.80722287378225   18.84990956659671    3.42111013487672
H        -3.14915904364284   17.14583875594233    4.15902144241923
H        -5.98204665033552   19.89869811686988    1.54367395276793
H        -4.63696886971831   20.94514716832361    1.09633327609485
H        -5.30961417069676   19.83304560981921   -0.09293911561272
H        -1.00263372777833   13.56941208205222    5.92480607131267
H        -2.29761739223246   11.48989169695848    5.60297240498188
H        -1.74274230053131    9.97004403314499    3.73927039094161
H         0.11641645171817   10.51999550971305    2.21700187556666
H         1.41809849383120   12.57146199393087    2.54330936090961
H         2.18337777588863   12.38892158166374    5.98666517465274
H         2.77710245631336   11.92908525503364    8.33413185848977
H         2.54205915451164   13.69724228457533   10.03727775875412
H         1.71801875496905   15.93036939055926    9.38738188345985
H         1.11949490810681   16.38771918694849    7.03514483780744
H         4.01580531764570   14.39846978402756    5.49839964198498
H         6.10835351017543   14.19437323585194    4.22930631086422
H         6.07604859320641   14.23023605688501    1.76377292115765
H         3.93548463185946   14.51110815659449    0.56593655884738
H         1.83076344969596   14.75560785129534    1.83759133120688
H         2.89423868398835   17.66634956709765    5.17880729897616
H         2.64372818135715   17.32220159501357    2.54096483805059
H         0.30876480681446   18.35848513469029    1.77860564610014
H        -0.91791601574307   19.31806949426496    3.95873760166581
H         0.69584244395429   18.93238711809687    6.05796250513176

