92
CSD_code = PALPEY | q = 0 | S = 0 | Stoichiometry = C34H46B2N4O5W | MND = 6
W         2.03672686521753    7.04748283101329    3.79852327880480
O         4.31922571549384    5.83086431138335    2.06207424861214
O         0.15953348391365    5.87927282544436    1.58228918811898
O         2.53656274609172    9.31194229391021    1.69300877207206
O        -0.09540003476734    9.17417899325862    4.59777558595960
O         4.03728868330749    8.70743386154701    5.54429128289601
N         2.39702883311094    4.29345587916676    5.38195953879180
N         0.78695367078789    5.51751167072679    6.31227128106200
N         2.78603537829976    2.35037478335527    6.97711375621180
N        -0.26694294684737    4.01126516697608    8.07269431259190
C         3.51409809170766    6.10902871776352    2.83109830666957
C         0.80020149912218    6.22978762395889    2.46569646729431
C         2.35041749003939    8.48049711360057    2.46188390761435
C         0.60329338220028    8.27416777593692    4.46126011100215
C         3.31344567560656    8.01973911205545    4.98138141789889
C         1.70076639545501    5.46069434783448    5.30512671311502
C         3.42047772098709    3.97638847454080    4.44930113244119
C         3.08585905890055    3.21450843726110    3.31788051262056
C         4.11060041023098    2.72869163115562    2.51935263864114
H         3.88068006644344    2.13449631733608    1.64954936624130
C         5.43230186695760    2.99552937482357    2.82634739453047
H         6.21922012926264    2.59899624253501    2.20225331780344
C         5.74753512872398    3.78785296084818    3.91295996972791
H         6.78233088572754    4.01094089406854    4.11997000052356
C         4.75350578074521    4.30529816571431    4.73240277702508
C         1.63551824690520    2.92743339788209    2.99701780277474
H         1.03538080666366    3.74400123757378    3.41422431732181
C         1.17979743952151    1.62051074793358    3.65443232150921
H         0.14996057530458    1.40536034017100    3.37673301822195
H         1.23516164721043    1.69470014472873    4.73796940392765
H         1.80556459776356    0.79258176187078    3.32606951063016
C         1.37239128092930    2.87998426638334    1.49192570831964
H         0.30185159254345    2.92423466599359    1.30403118839111
H         1.75177398549810    1.96061333609869    1.05187754372266
H         1.84123682718379    3.72596163233279    0.99506551205070
C         5.11008358529790    5.22585889114975    5.87772965346655
H         4.20020376228992    5.75128676203065    6.18775420410903
C         6.13316008428128    6.27689612434525    5.43898324796672
H         6.19685798298055    7.06662402011087    6.18427820993538
H         5.84101527728575    6.72312153879199    4.49082765365557
H         7.12287308898331    5.84103055105133    5.32631686944148
C         5.64559637118565    4.44853781895384    7.08285563514874
H         5.98756123178247    5.14225512218936    7.84831063552552
H         6.48410305934741    3.81990219613842    6.78938350572956
H         4.86704342080786    3.82463419375365    7.51101809199360
C        -0.10599024261310    6.61479119435877    6.44088487162671
C        -1.35108642418722    6.58002827502140    5.79625991962028
C        -2.28433300498804    7.55715165630738    6.11369981154974
H        -3.25566300156481    7.54265992257446    5.64526063842214
C        -1.98658493675305    8.55782153150188    7.01858681917001
H        -2.72707909503467    9.30695154888496    7.25610934689984
C        -0.73502558925108    8.61775884134663    7.60287276533076
H        -0.50794497917023    9.42245872619107    8.28374108729105
C         0.22475455577763    7.65604672313083    7.32244340363833
C        -1.66904679039938    5.52303016085104    4.76267373907794
H        -0.72281517682144    5.09495674693171    4.41467218068935
C        -2.51271398927469    4.39181095983913    5.35626591374564
H        -2.80088624289831    3.69447631861754    4.57213764356917
H        -3.41731752244335    4.79036636669981    5.81162811267190
H        -1.94730843288421    3.84763892053150    6.10674843416231
C        -2.38230723171401    6.12705141367947    3.55068524942456
H        -2.37225902540870    5.41982847058859    2.72423442996053
H        -1.88319379588096    7.03814867917043    3.22806606201538
H        -3.41945363139661    6.36110812366171    3.77855013325062
C         1.59668556424337    7.71307754062700    7.95647141046408
H         2.28848174911017    7.16450119769070    7.30728426973797
C         2.11113426138178    9.14761281345840    8.08174217653510
H         3.17774227187577    9.13995526057524    8.29479835594570
H         1.61186608488967    9.67820855134039    8.88912463353940
H         1.95180212895833    9.69271122457124    7.15429390005048
C         1.59093047393417    7.03119055132356    9.32853669467666
H         2.56819887296429    7.13048659402020    9.79646136693106
H         1.36218120738359    5.97270127055462    9.23081066702799
H         0.84923715535002    7.49250055254155    9.97805399049987
C         3.71317832179961    1.52145047928212    6.23361574694378
H         3.73512478974863    1.79596878284611    5.18708056689792
H         3.40115352807643    0.47439177302756    6.31485835915261
H         4.72638031073999    1.60050089199270    6.63872048067454
C         2.69963810464699    1.87316731618855    8.34306899849042
H         2.12616018332878    2.56363393438383    8.95181623085515
H         3.70652438994610    1.79793184859187    8.76624022723584
H         2.24767909604477    0.87632595053458    8.39119360965197
C        -0.48867952033029    2.65380292566966    8.53072384531895
H         0.11000013813508    1.95578197632815    7.95642274266870
H        -1.54305566048339    2.39275796873189    8.39595934457146
H        -0.25642859504995    2.54838016375891    9.59609185643902
C        -1.23854307510012    4.89088269557935    8.69097868622864
H        -1.05271007660654    5.92602293761339    8.43658342425477
H        -1.18103344749337    4.78099926638994    9.77940929382752
H        -2.25545757782054    4.63052432541059    8.38222559412752
B         2.05499137592154    3.46390737969527    6.54417043409607
B         0.74669166083181    4.31581069169018    7.15627321892205

