89
CSD_code = PALRUQ | q = 0 | S = 0 | Stoichiometry = C32H47F3N2O3STi | MND = 5
Ti        8.48661476399969    2.68680505441794    5.15020160167155
N         7.86383619864990    3.72430645445621    3.54817231848244
C         6.86880971749398    4.58522825142339    3.54282171010931
C         6.26446532916522    5.05147251843330    4.71733484089582
C         6.76429929406381    4.91700220923564    6.00774125294772
N         7.87297063336689    4.23497092272677    6.28398023217898
C         8.38646450135995    3.21908672788837    2.33125684335965
C         9.69853079914820    3.56310840820158    1.96672258917464
C        10.23738509967754    3.05117727743005    0.79585214353002
C         9.50804682917863    2.19302032826951   -0.00375459889487
C         8.22450299878170    1.84426084078921    0.36481059356849
C         7.63846620349511    2.34317082610466    1.52070404914742
C         6.23684483211620    1.88937649266424    1.86977602439335
C         6.20183874255819    0.36952033419324    2.06781779403234
C         5.23240714164180    2.27109267087790    0.77462417324765
C        10.48853330886402    4.53826961356400    2.81075133619337
C        11.96539346024067    4.15762041124331    2.92182638282024
C        10.33434275993409    5.94369121095343    2.21625876317257
C         6.36487784835205    5.21595586326597    2.26569487669497
C         6.00762301572580    5.62204002897473    7.11014968694866
C         8.54866787576641    4.61610339017787    7.48829763544460
C         9.39704380323263    5.74040455292473    7.42989657712398
C        10.06965229278092    6.14307819772292    8.57469080738599
C         9.93712140226786    5.45019149591930    9.76236096919534
C         9.09161021468590    4.36200908536878    9.82044582613869
C         8.36984202638857    3.94739300543797    8.70751503027405
C         7.38601285996863    2.81192253174921    8.85824036935147
C         8.11718271964726    1.48486078720260    9.08110944775445
C         6.40853771775458    3.07870858442108   10.00985538569287
C         9.57388382181395    6.53171090733998    6.14899477805499
C         8.75437839468909    7.82585083175655    6.19734016205145
C        11.04375399755824    6.87013980442980    5.88534369069608
C         6.75925232146052    1.63965710446722    5.71469089677817
C        10.36867801667744    2.91320153261293    6.04171797107575
O         9.11317241687881    1.30525069878285    3.95902612071678
S         9.18843024258917    0.04433349078798    4.71164186445308
O         9.33463374802221    0.27321624927399    6.12035441010319
O         8.26640057867276   -0.95942979061884    4.29221862113785
C        10.86390960761667   -0.56346216526194    4.09954790342709
F        11.74408659532034    0.44662887620808    4.15313940509150
F        11.37252654961491   -1.57835655401506    4.79716379432779
F        10.77724031711759   -0.94152856236959    2.82311577920846
H         5.38828676646069    5.67008747314226    4.58824992205385
H        11.23958355219139    3.32250808404526    0.50406989310231
H         9.94042086153545    1.79371916654247   -0.90884252642068
H         7.66463232337965    1.16581827805410   -0.25991950752604
H         5.92843074704552    2.36474859060570    2.80923151634142
H         6.96576486665787    0.04178835112864    2.76904895420938
H         6.37175885488123   -0.14620817704660    1.12565269174045
H         5.22709769218934    0.06722044265854    2.44665889244380
H         5.42475763997897    1.70543164229909   -0.13361028430986
H         5.28519983904139    3.32767140230121    0.52730744645306
H         4.22134097207428    2.04254490034586    1.10499744249278
H        10.06305751991766    4.52921989175100    3.82733645953034
H        12.44409473235195    4.76071209620298    3.69029363992756
H        12.06349879918658    3.10879325804310    3.19306223823597
H        12.49333920743539    4.32990349986318    1.98676413031296
H        10.64346046840065    5.94639308857199    1.17256627294782
H        10.95157675601162    6.65666349827238    2.75702275123991
H         9.29807752766950    6.27109557662282    2.26945882234331
H         6.93649470833713    4.88293837917742    1.40343855086020
H         5.31370932292876    4.97858559787814    2.11768976777231
H         6.44814532710732    6.29920932134203    2.34827912574699
H         5.33701270751725    6.37661498986074    6.70890533729007
H         5.40919329888048    4.88321019329279    7.64351248452452
H         6.68213331574245    6.08101044309749    7.82862994719004
H        10.70779039986660    7.01204527396124    8.54252278946435
H        10.47991804286341    5.76745771082765   10.64005533796373
H         8.97502773696398    3.83350565971243   10.75369092781170
H         6.81131506360718    2.74040306056377    7.93205392410552
H         8.70688821973667    1.21935394460732    8.20405958646375
H         8.77734648957815    1.55095730573036    9.94334367572922
H         7.39684610874983    0.68984883126553    9.26407228744939
H         5.97724057836532    4.07468522424678    9.93266814747818
H         6.90361413070899    2.99745824134827   10.97390214948972
H         5.60173903531086    2.34948527776775    9.98583131471432
H         9.20288468271679    5.92111685996817    5.31447701492011
H         7.69132221629898    7.60971462600142    6.24174973271861
H         9.02589510180836    8.41593937007582    7.07004703809060
H         8.94546811575545    8.42031825351581    5.30647218453057
H        11.41636120771172    7.59789279264227    6.60133547124718
H        11.66388087363149    5.97931417946218    5.94644044631157
H        11.15022927564868    7.30048680447718    4.89270030966679
H         5.85337649486218    2.25045700163547    5.83956099449603
H         6.86837364017062    0.98656550202396    6.58121795606370
H         6.59802648661583    0.98251414257771    4.85357459153043
H        10.38208760001510    2.47585731095448    7.04500630513642
H        10.76744708637491    3.92784097036447    6.12814832266474
H        11.07168260731163    2.33964116878954    5.42931546430224

