93
CSD_code = PALROK | q = 0 | S = 0 | Stoichiometry = C34H55BN2Ti | MND = 7
Ti        1.14309355594035    5.04211718291712    7.96053212898150
N        -0.17455608788219    6.30112716970797    8.64945382385188
C        -1.38511621403763    6.03266835615819    8.18283920112569
C        -1.82205120246066    4.73787927587605    7.90641430514818
C        -1.15146126603873    3.52414327101049    8.13715854125720
N         0.11244737552473    3.45761669170092    8.50184203321102
C         0.11383076592002    7.55187491883986    9.23641326825554
C        -0.24093226514385    7.77278536550761   10.57924677346609
C         0.02248875512927    9.00897850630941   11.15156355947408
C         0.64396848929113   10.01178723677081   10.43289169522886
C         1.01321873659097    9.78344864245969    9.12135250066924
C         0.74467391112137    8.57027929428630    8.50401338547585
C         1.16156284921279    8.33494285692127    7.07255033888989
C         2.67755149091639    8.11354315569545    7.03335895381456
C         0.74781898968545    9.47701892937477    6.14226622306300
C        -0.89257635232396    6.68396525428777   11.40206490982217
C        -0.08925580375469    6.42368565761263   12.67785240876828
C        -2.33985312166996    7.04468347380124   11.74683115959653
C        -2.36712119063464    7.15721363598434    7.94014048673322
C        -1.99959513074476    2.27858231552479    8.00007404598321
C         0.72277531994572    2.23942886593018    8.87124197268479
C         1.16499857859167    1.31210877383355    7.90916408188308
C         1.77983656769049    0.14195067085854    8.33846982354186
C         1.94245267717448   -0.13165796032726    9.68051061175897
C         1.49394413801850    0.77475196205731   10.62351189171821
C         0.88972641339002    1.96382450281513   10.24497347176446
C         0.39664681067679    2.95808653349254   11.27456939613204
C        -1.12417547982823    2.84334961035777   11.44281056412744
C         1.05357166998435    2.79071011584827   12.64532101403467
C         0.97596012117236    1.52545006944451    6.42189326402676
C         2.32284680600446    1.59078207890093    5.69484828294193
C         0.12929153469773    0.39894527811852    5.81551230372421
C         2.49325045724316    5.22877320290432    9.28528339013879
C         3.89007503371229    4.66873790711829    9.37190094915747
C         4.06517488927287    3.89399029172189   10.69179997320110
C         4.17451916564279    3.69929493686498    8.21594238170163
C         4.93178624996627    5.80514038925513    9.33666132181029
B         1.15186068826404    5.12409650845077    5.41849205064346
H        -2.83585678967314    4.64697360157368    7.53863620250643
H        -0.26446395050901    9.19422557255094   12.17560581507438
H         0.84218653155613   10.96741224728701   10.89493076191927
H         1.50697776010480   10.56597032748667    8.56615742774746
H         0.67769583348753    7.41651714587726    6.71066444489118
H         2.93231570397079    7.27533333027868    7.69529489923177
H         2.99779681802836    7.87562308356489    6.02014951163368
H         3.20319870725929    9.00701731973581    7.36737495664486
H         0.92364375999520    9.18668187022115    5.10872207485311
H         1.32054489038253   10.37976430055743    6.34104898276898
H        -0.30944987475599    9.70736737986261    6.26087470874114
H        -0.89591158633846    5.76017286654779   10.81049711468695
H        -0.53518718891307    5.60470380358192   13.23751299491655
H        -0.07444209074047    7.29987140068854   13.32087970557403
H         0.93579580895141    6.16074328207400   12.42716290877962
H        -2.38038796590932    7.96325277736694   12.32792488896224
H        -2.92846774080169    7.18424086491950   10.84354520915142
H        -2.79508452323070    6.24797642704635   12.33155773910033
H        -2.26147542035696    7.49996624590003    6.90918239995570
H        -2.16462539695449    8.00139255846157    8.59743657960571
H        -3.39242801159388    6.82408051263555    8.08196108795573
H        -2.97248537402012    2.42510635214308    8.46696924605008
H        -2.16797144449499    2.06861198825522    6.94409094668023
H        -1.51165897499572    1.42032862659649    8.45777196383957
H         2.12408375504840   -0.57473671556752    7.60862024988255
H         2.41179151507050   -1.05206589274262    9.99436865588063
H         1.61775741809249    0.54229651586532   11.66848829088690
H         0.64003640250347    3.96044965898728   10.88412142868244
H        -1.64667565397973    3.15016845083583   10.54179800531757
H        -1.40000253831930    1.81560481805311   11.67448235818611
H        -1.45764901120932    3.47878228227713   12.26014696591892
H         0.79899565364713    3.63785364603034   13.27687275107931
H         2.13528136664091    2.74568324499712   12.56254458225067
H         0.69856310987518    1.88945176550326   13.14126838142575
H         0.46074867730831    2.47960358689527    6.25246744061107
H         2.88860564984404    2.46404557029755    6.01344008542996
H         2.91601470567799    0.69911441495064    5.88642129356631
H         2.15577993611133    1.66807376903808    4.62244738756102
H        -0.14128544690438    0.64981153112377    4.79196218134913
H         0.68782036357772   -0.53421738343092    5.79808952728538
H        -0.78268199923043    0.23370546012996    6.38413330529220
H         2.30477057637892    5.88804773271454   10.15543387792268
H         3.39381343032009    3.03798266158165   10.70009335036859
H         5.08839289279041    3.53467619589424   10.79435503070590
H         3.83765585251782    4.53203895648350   11.54356527432739
H         5.93558463638682    5.40786472829588    9.48123119904718
H         4.73130389908254    6.53055338621929   10.12307499104046
H         4.90076564413604    6.31890609547918    8.37693475914788
H         4.14082909765151    4.22727498674200    7.25909435771873
H         3.43055403541363    2.89826323768025    8.22192192473233
H         5.16336765845145    3.25434052428573    8.32654883804369
H        -0.00356420105005    5.11138000760950    5.82086304248276
H         1.99289454129692    5.02195402232695    6.48164985299627
H         1.41408848703371    6.15064507018312    4.87089241571510
H         1.37382213910882    4.18780885763389    4.71894913607376

