110
CSD_code = PALTAY | q = 0 | S = 0 | Stoichiometry = C42H56F3N3O3S2Ti | MND = 5
Ti        6.41859642323922    3.57846002047564    4.72016220513798
S         6.62411168858690    3.89632888417749    2.32280508541495
C         5.71860348920608    2.38827352288171    2.45924209726498
N         5.78271793549171    2.08566892976812    3.80448132663814
C         5.11497417174699    0.93200074099910    4.25268778283803
C         3.84172039286800    1.01909536800968    4.81806520320703
C         3.19654647487542   -0.12280982705231    5.25720133287462
C         3.79967171762229   -1.36240063941069    5.12157178137151
C         5.04496425749767   -1.45945996519807    4.52208487298928
C         5.69801775035069   -0.32470659677860    4.08004925818044
C         5.04761028061037    1.72339196903955    1.50525914237846
C         4.85820853944776    2.14702582602873    0.06988987506551
C         4.02756902221788    1.08199224879706   -0.65181749251194
C         4.11127355511780    3.48743481433179    0.03069213537672
C         6.20603724267560    2.30546911665528   -0.64093584265109
N         6.95993391011042    5.46826805921315    4.72872679556085
C         7.60681562514186    5.80274744417677    5.83844916930403
C         8.45058487795274    4.92601039178274    6.52272667393192
C         8.78863194650012    3.60598866354561    6.20056153482580
N         8.14239390683540    2.88221745015118    5.30178916348039
C         6.76345832806630    6.49548332722080    3.75275399989582
C         5.53260011718662    7.12343641926742    3.51317868900297
C         5.45858742875805    8.12449998163330    2.55295782396915
C         6.57601120649766    8.54190025026268    1.86062669635997
C         7.78462902593727    7.91756881351503    2.09161535688441
C         7.89637580941641    6.88294175000991    3.00861204093887
C         9.23167035907235    6.18568940436690    3.15582304531421
C         9.74128523997753    5.73379195071196    1.78507165753926
C        10.26078453177828    7.08994179299479    3.83939933263542
C         4.27327337618913    6.71247303265147    4.23613648997079
C         3.49007726227677    5.74609767999046    3.33887584068003
C         3.39770231796307    7.90038755503558    4.64309804958926
C         7.51525560424357    7.21861137724132    6.34963286491872
C        10.01651194626185    3.07168860196693    6.89931223067072
C         8.48462401613823    1.51323917395370    5.09725714425461
C         8.22130495985384    0.52765548487360    6.07088770979112
C         8.52088939753355   -0.79769630746363    5.77753295896688
C         9.10158330628044   -1.16337046817805    4.58053804161204
C         9.40877310505553   -0.18744132365296    3.65319681806351
C         9.11028187418486    1.14723697405999    3.89199363244215
C         9.55716244118037    2.19216479849249    2.89762325273483
C         9.23629958556771    1.78839412639591    1.45911199184691
C        11.06202492465738    2.42507887225628    3.07443703716664
C         7.65139230408148    0.82724443371621    7.44026140528906
C         6.24405516074971    0.24102958539368    7.57752295185729
C         8.55527861769263    0.27299062975995    8.54901945877907
O         4.58497106963098    3.97103883879632    5.44679564130568
S         4.96493949533195    4.21856207477615    6.83568461776250
O         6.13328813564006    3.43224446676455    7.13983636826072
O         4.97491295735848    5.57885632453471    7.26065095417249
C         3.56142287589984    3.44140512174991    7.80753721856296
F         3.52082597913123    2.11997826906464    7.63156969877119
F         3.69123393280545    3.67499156489146    9.11274587192267
F         2.39243631906957    3.94356442165608    7.40731895762149
H         3.36735070953057    1.99000508757219    4.89437321401471
H         2.21505727800863   -0.04461314519246    5.70065710728355
H         3.29319881283437   -2.25060066258384    5.46842038991215
H         5.50929106176535   -2.42606981993900    4.39123084530188
H         6.65969782922504   -0.38992649039660    3.59267097545248
H         4.53358744670391    0.81982349584194    1.81011289950041
H         4.53531129649395    0.12007904512581   -0.62692012310063
H         3.05385371429456    0.96994143440229   -0.17971941497441
H         3.87438317810856    1.36246874547220   -1.69162478980315
H         4.71154935588013    4.25595270570369    0.51031156529415
H         3.92005392913515    3.78231108286303   -0.99879500933197
H         3.16005629584727    3.40672005437997    0.55260635086338
H         6.80568492854849    3.04944451629158   -0.12535288812675
H         6.05064341534417    2.62660408540230   -1.66842908525024
H         6.74397707903201    1.36042122340971   -0.65158566373838
H         8.98516216961008    5.34478963333998    7.36432160774000
H         4.50965950651633    8.59628615198807    2.35504454013274
H         6.50349141229401    9.34136791634755    1.13865995078843
H         8.65648081318249    8.23847143938531    1.54359212156104
H         9.09435945917416    5.28561222219140    3.76888862210302
H         9.97702571125388    6.58239029255335    1.14922402583303
H         8.97996141981975    5.12965610510808    1.29801911036894
H        10.64522943889605    5.14291200531270    1.90434096886614
H        10.39717601223007    8.00963041755046    3.27508295826840
H         9.94252001905989    7.34825860844909    4.84596156465630
H        11.21998121363997    6.58028726716357    3.90237877515567
H         4.55426755517866    6.19533614321440    5.15463328370238
H         4.10232292108807    4.87225542418682    3.09651872060303
H         2.58883879218457    5.40748793180566    3.84640525451401
H         3.20947124973364    6.23921574483570    2.40946645908121
H         2.90049665277461    8.34624860348451    3.78489947784877
H         3.99413619552349    8.66378049160738    5.13795702112708
H         2.63146966742232    7.56292445548709    5.33736833499106
H         7.52273701036226    7.93529184840247    5.53054779767720
H         6.56161030198745    7.31052444340680    6.87266663619083
H         8.31639730096491    7.44722449602358    7.04693977658069
H        10.83271700406931    3.78396163218335    6.78479493330637
H         9.82352978308141    2.95638150408985    7.96388163630209
H        10.32059798829846    2.11266651700505    6.48695859297503
H         8.30352725074205   -1.55893546763471    6.51002927674664
H         9.32947287486297   -2.19936979137780    4.37926026217344
H         9.89607368150947   -0.46588799867822    2.73252951213604
H         9.01894742231959    3.12636635221345    3.10799514237827
H        11.27337840203441    2.85479727291123    4.05114047685326
H        11.60471263379080    1.48570469601406    2.98700403986615
H        11.42984665715612    3.10325967757045    2.30920911386483
H         8.19681908445090    1.47978386001416    1.38807150924710
H         9.38228145725318    2.63926571299401    0.79989275004063
H         9.87637593817777    0.97936962110372    1.11593433554966
H         7.56687963471961    1.90625156692760    7.57574552526673
H         5.57320557719291    0.70061748264830    6.85586047439131
H         5.85675691454869    0.43598509209889    8.57502632739610
H         6.24585247118565   -0.83357986444551    7.40859961638845
H         8.23678572436441    0.66421788538939    9.51268495392894
H         8.49852404492131   -0.81172309099896    8.59385978357785
H         9.59461808211077    0.55017891947362    8.38894040630487

