111
CSD_code = PALTIG | q = 0 | S = 0 | Stoichiometry = C40H60F3N3O3STi | MND = 5
Ti        8.70289339533562   10.70101174463502    4.88773481460125
N        10.61068462461652   11.30636562170518    5.06762813713675
C        10.94969000133650   10.55369660610530    6.10362332283567
C        10.09719030573705   10.30023371458521    7.18745283877631
H        10.49554078241606    9.63221117793482    7.94086421267868
C         8.82572832407399   10.82452859937588    7.45465319090360
N         8.17057888288219   11.59046066949995    6.59673325040372
C        11.60517429542789   11.94707813661682    4.29653919682623
C        12.44005902863332   12.90491392645893    4.91876142150943
C        13.37519507547585   13.59109215035768    4.15580799407909
H        14.01276745936505   14.31993307995087    4.63145138237323
C        13.51664739721864   13.35460765160122    2.80526470881936
H        14.25368505018232   13.89358081983356    2.22942645228617
C        12.71385303935882   12.40755385965294    2.20172979077765
H        12.84497921655821   12.21033329785888    1.15080541278077
C        11.75798373059767   11.69852728746694    2.91710233452450
C        10.97864319586197   10.60952478303708    2.21439489886259
H         9.99498660521768   10.50753568903860    2.70050096302298
C        10.74860269921822   10.89060926718231    0.72710577131419
H        11.66184537968760   10.75315793037803    0.15143575252260
H        10.37959281877484   11.89983923628191    0.57043204815508
H        10.00880430050822   10.19682243019913    0.34030329672936
C        11.74146174458884    9.28556788089790    2.36151966525863
H        11.21508450295531    8.49343584669339    1.83422569436283
H        11.81812049039386    8.99633763631139    3.40669828670292
H        12.74453310076379    9.38005321727145    1.94560538892079
C        12.37990818507885   13.23764105391633    6.39592047963090
H        11.59771615590683   12.63994070807566    6.87208777153866
C        12.03983706926763   14.71403709003133    6.61908971706014
H        12.79874234977623   15.36003226596555    6.18505506073924
H        11.99470489609222   14.91854815754689    7.68691706902657
H        11.08266621606944   14.96180069616979    6.17189646921640
C        13.71674540404181   12.92714406131391    7.08108312513924
H        14.07345694090363   11.93319260925562    6.82829926096768
H        13.60602947081255   12.99242770657136    8.16160544595461
H        14.47756472211594   13.64193907193736    6.77692481310781
C        12.30335553050982    9.88713864332169    6.18152526850563
H        12.95388932698325   10.20766100029494    5.37004599369997
H        12.13851063960419    8.81020652090432    6.11037464484435
H        12.78309780436940   10.08292246880066    7.13821665944530
C         8.21223643930497   10.41025215631500    8.77287693137299
H         7.38780194784908   11.05989302565998    9.05842653801143
H         8.95625606543206   10.38121940616471    9.56608863450952
H         7.82704917238719    9.39702989492003    8.64389791185992
C         7.05228390839431   12.33703772695868    7.04508621637522
C         5.73986415716254   11.97921153270990    6.68633968137162
C         4.67454464290689   12.69690213066959    7.21518655757907
H         3.66526118752941   12.40674118632958    6.97004895083769
C         4.87403744106564   13.76003167013929    8.07190789955422
H         4.03201712576532   14.29240673793103    8.48773602864139
C         6.16276446175677   14.13734299904661    8.38717724753469
H         6.31699276034863   14.97493558991492    9.04886563609779
C         7.26120739581036   13.45430133996430    7.88257761507702
C         8.64169182787581   13.96770881379438    8.24189364506724
H         9.38013177353569   13.46000331260895    7.61149563000988
C         8.98810247438240   13.69902937576514    9.70966405801162
H         8.23260401675940   14.12712303387279   10.36488564501082
H         9.94683770466541   14.15416565000896    9.94996586960237
H         9.05578171967139   12.63621354076579    9.91436706989973
C         8.73503467676086   15.47792781123566    7.98671769242328
H         8.35523877965082   15.73443321833365    7.00183031438243
H         9.76883821970835   15.80464797318884    8.05581409424595
H         8.16417056177547   16.03229878691038    8.72695677794165
C         5.44237057877556   10.79134545951283    5.79981902443586
H         6.37624589407687   10.47703347192436    5.29722385510733
C         4.42364435330405   11.12736986010311    4.70897744498899
H         3.46826415452736   11.43396563688865    5.12764279600347
H         4.24899625736609   10.24746048467284    4.09574592686106
H         4.80348897831544   11.92008377580397    4.07126444090240
C         4.93187048958428    9.62687235357647    6.65628798261872
H         4.01958345674580    9.90740896965284    7.18082211356792
H         5.68167935767296    9.33603915405968    7.38720956210601
H         4.72500833613212    8.76305521505545    6.02871722302233
N         8.18966171834590   12.11604892647581    3.84580187574751
C         7.64120081840411   11.05151929115582    3.21334610016847
C         6.89984748056288   10.91183232007586    2.11339870940573
H         6.62321661431414   11.77278439226702    1.50620803343705
C         6.40595993829859    9.60117679858613    1.54080035158121
C         4.97379070045119    9.77435019757168    1.02031898534354
H         4.58989180701940    8.83109261894461    0.63627154885414
H         4.94841004404556   10.50615342526086    0.21531378476863
H         4.31470344701779   10.11878889115491    1.81312941172555
C         7.30764610520633    9.18336782254374    0.36897476318305
H         6.90319118545437    8.30693114236974   -0.13483456910814
H         8.29881253323865    8.93904458623735    0.74386008772339
H         7.39340496610847    9.98948446012151   -0.35703260311454
C         6.45327548311648    8.49990662199683    2.59736521158746
H         5.78248977285522    8.72154990932165    3.42455359194648
H         7.47046335712646    8.43038480274288    2.98315179744251
H         6.17124751876539    7.54032509077753    2.16771059960063
C         8.14508374732883   13.52708410380309    3.50011367043802
C         6.69479881971420   14.03357991843947    3.56797009425857
H         6.08007815212832   13.51917805492866    2.83591935132478
H         6.65868369520289   15.10168200733488    3.36546660978378
H         6.29296184542736   13.84657277195238    4.56262040531758
C         8.99002864513409   14.28534195589046    4.52404605071948
H         8.62768384596126   14.04849754503978    5.51962508510306
H         8.92458981615762   15.35832196142742    4.35415883175247
H        10.02749536087201   13.97288776783663    4.43468527934018
C         8.73907722886022   13.76692464372750    2.10357412604640
H         9.78946499651052   13.48511431186503    2.11016606245304
H         8.65721067469374   14.81919520151913    1.84049818734122
H         8.22119909314039   13.17439241920482    1.35730643795523
O         9.47599874228672    8.83135908116225    4.29033440629591
S         8.98871591878027    8.10361107387756    5.45245117237865
O         9.98817691660961    7.62378244068854    6.35143521280853
O         7.86726723463039    8.82763442163291    6.01101142693812
C         8.23110011283877    6.50338479800656    4.77859985386745
F         8.63451547042154    6.24898362090163    3.53184380913689
F         8.58970634309196    5.46635776174809    5.53635172936770
F         6.89739937413060    6.55363723194545    4.78292549602915

