57
CSD_code = PAMBEM | q = 0 | S = 0 | Stoichiometry = C20H22N6O8Zn | MND = 4
Zn        5.06751589126132   12.62413300288346   14.51406840607206
O         0.86818281989888   13.64320866241206   10.82525667060359
O         1.72071545169159   10.84627820179800   10.27398026973276
O         5.49026849041399   14.25747239907646   15.61048881137252
O         5.88681919977452   14.15876831673152   13.52660841332486
O         6.30662681996114   15.94377987996183   14.60248354505422
O         6.72701256960619   11.78196969580077   15.26738949810284
O         4.78103945842473   11.28143637258176   15.94969805636835
O         6.48459203664498   10.38208751711231   16.85051227735339
N         3.18478175314774   13.33620589283929   14.25842027250306
N         1.61772245947150   14.64185011360333   13.39083658105031
N         4.19239689781673    9.85449766832042   11.51061417947866
N         4.97450715699861   11.32202443150870   12.97555201718468
N         5.91337519548682   14.81291807714912   14.58737764493582
N         6.01584988869262   11.13622073174563   16.04948867257544
C         2.13846634619531   13.38927785865742   15.14906357782880
C         1.12896853567688   14.20914243120197   14.60353415267686
C        -0.05833565157042   14.44812831621130   15.28184446648568
H        -0.83287609265941   15.07704704047386   14.86945286832960
C        -0.20332967074882   13.84552476124440   16.51500117041979
H        -1.11150234491478   14.00693819362433   17.07601632834198
C         0.79551603812547   13.03267384581233   17.05884734045457
H         0.63183933745995   12.58795018727136   18.02834069119611
C         1.97792233209448   12.78981631670086   16.39268242294672
H         2.75903774873841   12.16843446491738   16.79692067746429
C         2.83151822410120   14.07995747428305   13.24196645972976
H         3.44368235936810   14.23939457107125   12.37516937831430
C         0.91277888328741   15.41354192996055   12.40695577911914
H         1.64215648092112   15.90475764551611   11.75999581437557
H         0.30031124599996   16.16714230442754   12.90700048864799
C         0.02511993322583   14.50173748151593   11.55498569380078
H        -0.64525466279856   13.91822783665964   12.20494978171694
H        -0.59243898867130   15.10798477778160   10.87431801923834
C         0.17056168268311   12.65852893016283   10.10279501918231
H        -0.50233963397575   13.13279127440729    9.37188874266958
H        -0.42932461024118   12.03744274643437   10.78346224372060
C         1.16836514363022   11.77242565194977    9.36881894214651
H         0.65078895441295   11.24021437882619    8.55612426552946
H         1.95830456018971   12.40076220012991    8.93413969552356
C         2.59577797716841    9.92826820841194    9.66374113508155
H         3.37703212871257   10.45742562879315    9.09695660734906
H         2.04228021957909    9.27893135350886    8.96737102167650
C         3.23737184828241    9.08185796044155   10.76714268413872
H         2.45267557721484    8.73939561694160   11.44511420041668
H         3.74245886953967    8.21955993644887   10.32735333361935
C         5.52485330897926   10.02822605877541   11.20626758886379
C         6.01173782959489   10.95554066108891   12.15041595438139
C         7.34411420905325   11.35067412659151   12.14253475414582
H         7.70474760996208   12.05479397582330   12.87302817060735
C         8.15736953232275   10.79783402691931   11.17644589027631
H         9.19911014825362   11.07604490535811   11.13708703792848
C         7.67089847827609    9.88019487024611   10.24081042997755
H         8.34707943291507    9.47466296286401    9.50337834339705
C         6.35059629887148    9.47826677299218   10.23551529425215
H         5.98280799322214    8.76902817807462    9.50941976582126
C         3.92877009532178   10.65739493572784   12.55925604925323
H         2.95397620291968   10.72730623821491   13.00121240326820

