39
CSD_code = PAMFOA | q = 0 | S = 0 | Stoichiometry = C16H17Cl2NO2Ru | MND = 9
Ru        2.56985854727288   -1.85568623221290    5.86800802600278
Cl        4.76948622268408   -2.00695240764841    6.65463041194128
Cl        1.88203345072968   -1.59257090750403    8.09880494988172
N         2.99846595640749    0.28221316246926    6.19137684709055
H         2.17673562954653    0.69525593135857    6.64261441763670
H         3.77153100606521    0.21336961214573    6.87068794752954
O         5.69881032649661    2.62204728019984    0.87706016560442
O         3.62572810036069    3.42941909371280    0.71740087762912
C         2.25291447776486   -3.99914015734275    5.23280063479331
H         2.57398165543071   -4.93205700259540    5.68359448579323
C         1.00121666024797   -3.43391224181181    5.56143545959777
H         0.36626576791306   -3.92804642615143    6.28871091293256
C         0.54056219793134   -2.25837715830281    4.92400496502328
H        -0.44408200147651   -1.87153766013476    5.15228224301132
C         1.35203866456331   -1.62079286445243    3.95981658116349
H         0.98589507464889   -0.74662177271092    3.43144376138087
C         2.58051969329227   -2.20570691209225    3.58409844977237
C         3.03677947720893   -3.37075174241069    4.23384318180310
C         4.34252773734787   -3.81299154891741    3.64515158455244
H         4.16715513793083   -4.66054014365066    2.97485382066370
H         5.05894989640489   -4.11828317428394    4.40728637401675
C         4.81321312442641   -2.56883299616493    2.87418321866118
H         5.42938994232049   -2.81926742729117    2.01381006149956
H         5.39139086515265   -1.93913878491278    3.55125943807472
C         3.52592724124676   -1.82792105748550    2.48123114792695
H         3.67285195647253   -0.75312244769008    2.38317420360825
H         3.13015222152174   -2.20650276559530    1.53236199814857
C         3.38518836063911    0.92971958725234    5.00307352363829
C         2.45879504274170    1.65610043473627    4.25455640481315
H         1.44417969097823    1.75598337289410    4.61398543610344
C         2.83594811500715    2.24539383795060    3.06495523889182
H         2.12319504037429    2.80881334519730    2.48390540337630
C         4.14676198969385    2.11886774817044    2.60889737973967
C         5.07506719786806    1.39847114556290    3.36329250033319
H         6.08547872630800    1.31456885438251    2.99378310114627
C         4.70242104077341    0.81362143554934    4.55410504740192
H         5.40636106997960    0.24349113906069    5.14334149596567
C         4.58984696104003    2.72895936082802    1.33838431448603
H         3.97835773491903    3.80895848999404   -0.10280601182974

