41
CSD_code = PAMGOA | q = 0 | S = 0 | Stoichiometry = C13H16BCl4N4NbS2 | MND = 10
Nb        5.22221165825379    3.43244036221445   12.94437220360569
Cl        3.39931334723768    2.36009289815858   14.06773489898390
C         6.79702725919352    5.07219408556271   14.05346844877459
H         7.24088170266130    5.88726727007865   13.49962421918585
B         7.28449686056577    1.36472937105526    9.50637739785911
H         8.04854625425838    1.68847100124553   10.34666899947980
Cl        3.82755201747815    5.33425837454563   12.53222721319169
C         5.71938964648890    5.17633145680500   14.95837675920313
H         5.13987276290703    6.06757487038480   15.14648225244551
Cl        3.97757081252937    2.61057709721449   11.00731788053913
C         5.55675176094997    3.93840490345683   15.59209033097540
H         4.82903170462657    3.70571905028934   16.35478828116919
Cl        8.08978459101303    0.52757396257118    8.10480777109590
C         6.53084599962841    3.05180875293851   15.08737594728635
H         6.73417002793906    2.05644987971269   15.45579345544476
C         7.31622934738591    3.75782918630189   14.14415654952417
H         8.25067756737458    3.41731644814294   13.71940303119584
S         6.42473172780605    1.11365498997978   12.69907102791313
N         6.19831008020039    0.40307578882570   10.06097003024499
C         5.76833198633930    0.33174509084070   11.32462204469133
N         4.74230513992829   -0.53336231014704   11.39905806277128
C         5.40984191210062   -0.42490993735108    9.31701440989276
H         5.57736097540633   -0.54828942000033    8.26740580244538
C         4.50574876820703   -1.01012274306123   10.14290971512169
H         3.72612030230402   -1.71383097703946    9.93780631294867
C         4.01075248312826   -0.83032524601975   12.59835205353539
H         4.67086778788203   -1.29209260128306   13.33429336092099
H         3.19237155290891   -1.50494219602559   12.36096133058843
H         3.61341759601635    0.09661612229650   13.02568192916607
S         6.87742440809152    4.25126299838910   11.08137488637045
N         6.50926946770146    2.58401406702934    8.93750258262661
C         6.25337382117685    3.73097922969435    9.57448041408925
N         5.45494156431781    4.49704117783679    8.81146042740187
C         5.83799892764153    2.62079388882704    7.75064082185804
H         5.90663425628002    1.81156608784692    7.05392432924239
C         5.18236098084024    3.80618506010816    7.66710983483094
H         4.55429035070069    4.20383775710964    6.89741825534743
C         4.93566323789246    5.77672529591939    9.20353570950879
H         4.25820979902280    5.65560611227027   10.05629969548583
H         4.39967750721809    6.21920892852168    8.36740517625456
H         5.75544204639791    6.42882386475455    9.50883614678408

