41
CSD_code = PAMGUG | q = 0 | S = 0 | Stoichiometry = C13H16BCl4N4S2Ta | MND = 10
Ta        3.49519106112660    3.02194469821329    1.15185022856306
Cl        2.71808871946896    4.69743366388906    2.61561578326627
C         5.40851068648804    3.02135733859369    2.62762507520933
H         5.17980794881218    3.02177796309052    3.68274255263044
B         2.58587156326711    3.02193680397968   -3.17207638930733
Cl        1.23615855866389    3.02282482175334    0.41639092769595
C         5.78861726160487    1.87919153842224    1.87410713581852
H         5.72486024806962    0.85776267487644    2.21169545858661
Cl        2.12937201322182    3.02190412195091   -4.93530696464875
C         6.38710089692645    2.32119073244559    0.68587021178277
H         6.78144685659107    1.68971886566721   -0.09026203847134
S         3.89417089896987    1.25784472017575   -0.68858124255868
N         1.91837892969689    1.78004270708303   -2.52095681171570
C         2.38302218294924    1.07883101043299   -1.48228853476042
N         1.49287375854722    0.12775957273971   -1.15251510672173
C         0.69508772111239    1.26729498091406   -2.84305573912034
H         0.13260527393219    1.66026749943387   -3.66407130890902
C         0.42725846762188    0.24009242273104   -1.99857393782301
H        -0.42268718698376   -0.40662683458654   -1.93345057480242
C         1.64988414220070   -0.79667311403147   -0.06477442445203
H         2.53957911906044   -1.40763152362588   -0.22230648931033
H         0.77066960828023   -1.43294966509767   -0.00647140992605
H         1.77229352536496   -0.24759186439552    0.87310794882894
H         3.75455414731247    3.02215340422266   -3.00503539546520
Cl        2.71861646639718    1.34592000412390    2.61621559389507
C         5.78715063653724    4.16331191510185    1.87304065859888
H         5.72327172943873    5.18487911245161    2.21020819785832
C         6.38622771018531    3.72087573279280    0.68516656688210
H         6.78004672878235    4.35214580946201   -0.09139748579383
S         3.89368514756956    4.78607018046646   -0.68851131007934
N         1.91815178750740    4.26377036005927   -2.52108875414538
C         2.38259647372008    4.96494733314538   -1.48232455684780
N         1.49239210273118    5.91599736530379   -1.15266762640564
C         0.69493485733780    4.77653979282906   -2.84341219352196
H         0.13264459542861    4.38362211081024   -3.66458568797850
C         0.42691220379338    5.80367026404750   -1.99889254123207
H        -0.42307947741728    6.45033796339933   -1.93385349580626
C         1.64933351662539    6.84037071030499   -0.06488073048796
H         2.53903783240857    7.45132219227923   -0.22240213667219
H         0.77011792258784    7.47663838526596   -0.00656104142550
H         1.77174336406090    6.29122422927810    0.87296758877330

