101
CSD_code = PAMJOF | q = 0 | S = 0 | Stoichiometry = C35H54BN7O3Zn | MND = 4
C         3.86390597880704   10.89100073663145    1.56461379037023
H         4.41709268522734   11.75679847516920    1.26169415414161
C         3.48614237562637    9.77923821934578    0.84609748790945
H         3.69218420041569    9.58134080714804   -0.18441366032287
C         2.77594197768868    8.98189106624962    1.74979239263606
C         2.12649184025578    7.65314663800515    1.47243384014054
C         1.89741386804745    7.48539705068520   -0.03432989871716
H         1.31375928446392    8.31298112904657   -0.43134555568253
H         1.35398203275915    6.56166387188147   -0.21953997158101
H         2.84123852038266    7.43355511166069   -0.57063070649702
C         3.05866525351383    6.53794022678955    1.96411240675272
H         3.99865199421039    6.56366061645833    1.41688205635402
H         2.59380031445746    5.56643912179057    1.81124006996754
H         3.27612457643949    6.66427452626184    3.02052058528232
C         0.77290594525706    7.57064187126575    2.18314547685302
H         0.88585838410719    7.69966951607335    3.25469531575398
H         0.31291635307303    6.60182854566545    2.00131281124607
H         0.10450471351700    8.34656213584278    1.81586506576734
C         5.33789453288597   11.81139403650401    5.67932624600101
H         5.82630336722242   12.65187146109639    5.22953533972550
C         5.64059481546032   11.11535399781415    6.82752941953976
H         6.45373388431581   11.30358772355484    7.49589674796579
C         4.65655902009554   10.12672284612120    6.92779321559744
C         4.51875666883033    9.09610803530750    8.01662372134239
C         5.33497517693640    9.51242899613448    9.24606794032154
H         6.39904655946384    9.52591648718215    9.02514554235045
H         5.16690477008065    8.79962097037995   10.05015639509325
H         5.03644780667898   10.49892922421972    9.59362067607305
C         5.05721992323382    7.75628207507596    7.49648959719884
H         4.58170267372422    7.49013995336284    6.55800254744777
H         4.87355737338157    6.96791023470229    8.22329184891728
H         6.12907616896186    7.82610047641937    7.32225682907953
C         3.05112817233482    8.96877562564142    8.43661795556591
H         2.70777536179660    9.89852153020221    8.88575086553168
H         2.93687621449301    8.16889881221688    9.16499763388968
H         2.41325250651098    8.75319679209567    7.58682781661589
C         1.36248947638018   13.21435819292461    4.38450886113952
H         1.82198125995604   14.11078592749579    4.02020264236140
C         0.10037663204442   13.00245915332235    4.89126650266279
H        -0.67082619143597   13.73313209720984    5.01229515304059
C         0.05519776876998   11.63992928547367    5.20647246688673
C        -1.10229388619928   10.87964872867025    5.79415471894386
C        -2.29826943948573   11.81472464171770    6.00067918471976
H        -2.04874538251283   12.61939115446745    6.68826856391486
H        -3.12959580288822   11.25413326623349    6.42207102735479
H        -2.62304809121212   12.24537776299758    5.05642282488564
C        -0.68950040677964   10.29155057754962    7.14782722011329
H         0.11055587957525    9.57210007321179    7.01303444027608
H        -1.53654272556234    9.78719647445093    7.60706408745874
H        -0.34878627847913   11.07824697870064    7.81775175722939
C        -1.50809812081031    9.75333897420437    4.83756342493670
H        -1.75300356502722   10.15615580850911    3.85698993306156
H        -2.37988196080129    9.23216459148470    5.22611105639483
H        -0.69703035878341    9.04074625519167    4.73398439269404
C         1.87507096197695    5.94148999613957    6.21842006917637
C         0.68309562522210    5.67771019662753    6.94496027578941
H        -0.05070353442669    6.46641524941066    6.96026365128293
C         0.49799233719923    4.50423811182379    7.58761455992032
C         1.54631266162112    3.46526110655906    7.53431648027275
C         2.76496850601320    3.76071313471807    6.75387597008463
C         2.89339766213523    4.95466543422163    6.13529851543624
H         3.76520161957884    5.21181196526281    5.55700291775110
C        -0.76394406081101    4.21063608108555    8.38225804763785
C        -1.76012511710503    5.37418491356380    8.34725716135780
H        -1.33146096649663    6.27355010780944    8.78374873206835
H        -2.64043044676220    5.10591707373334    8.92757852711611
H        -2.08062884313799    5.58805096071525    7.33015390350046
C        -0.38587499515387    3.94881165429635    9.84727360221389
H         0.27397475829528    3.09053192726886    9.92072577466827
H        -1.28139969365690    3.75028142929664   10.43188232445253
H         0.11847450854170    4.81716024870460   10.26760992297151
C        -1.45284427465127    2.97214818951949    7.79167687656555
H        -1.70655677471944    3.14388335777143    6.74712187409041
H        -2.36702803699985    2.75843468353788    8.34102503342222
H        -0.79926200824966    2.10833985928835    7.85591949419775
C         3.84617660964068    2.69503437102747    6.68196609208257
C         4.34968122382214    2.39626330957415    8.10145449808886
H         5.13405727531401    1.64353043975168    8.06637387098159
H         3.53959849686549    2.02519505476504    8.72082368394118
H         4.75447427738542    3.29910546021930    8.55547348994704
C         3.25795509600176    1.42149186421989    6.05804048733527
H         2.88067566686758    1.63110404507088    5.05869792296854
H         2.44414464976961    1.04166528102585    6.66708033775938
H         4.02594905126054    0.65460566354942    5.98589504533117
C         5.04389627547343    3.13348638740480    5.83315540230559
H         4.74650430918120    3.33703559974777    4.80691756337490
H         5.77992433533109    2.33250818293448    5.81660468072035
H         5.52028192932544    4.01826413740182    6.24947755037549
N         3.41197186715926   10.75711752949609    2.81417401407181
N         2.75325763994591    9.59480376391105    2.93588453473450
N         4.24899778013638   11.26601169734496    5.13177628908438
N         3.83021880227145   10.23518322675918    5.88262268294186
N         2.02114549851156   12.05274517313305    4.39878339417485
N         1.23173395629266   11.08826596213052    4.89848587359516
N         2.04475110802518    7.11844458479305    5.63848842954466
O         1.41018153518361    2.39270088871517    8.12081844335571
O         1.14220234161912    8.02575587816823    5.69750431450807
O         3.10259013343217    7.42876601920323    5.01682708425061
B         3.45741808935548   11.79670110558224    3.93460689273851
H         3.94802119539364   12.79853962069125    3.53818595484570
Zn        2.32309686667347    9.38781018417651    4.86945349623011

