73
CSD_code = PAMPEB | q = 0 | S = 0 | Stoichiometry = C22H42N2O6Ti | MND = 6
Ti        6.60118040818446    3.80590541872587    6.46499644589408
O         7.21970466953899    2.24482701915330    5.94001794099657
O         8.02949990503743    4.76161099739404    5.81699508313673
O         5.35991371526919    3.19578165464263    7.67290024243496
O         5.41046553721258    4.31310118753505    5.27264019647463
O         7.80674945090954    1.88908750025170    9.95657056814735
O         6.62046626980433    7.96451569023064    6.63214870651358
N         6.34230720276619    5.89446576915225    7.41926267602066
N         7.82641198587422    3.48830885966784    8.39955729259196
C         7.16947274854797    2.58708469779676    8.99901181450459
C         8.10761089700611    1.96595709502915    4.91327556418734
C         6.92219435851285    6.65410734338396    6.58879163168212
C         4.11583024310669    3.85188441437507    5.09275394887742
C         7.91898889626832    6.10956638837183    5.59781079497532
C         5.44223429213883    6.69272984224798    8.23884121671108
C         4.87312690099778    2.49951008632173    9.93493403473497
C         5.72632776794049    2.31626232053271    8.65756050924294
C         7.38489315705442    6.42064161244428    4.18034852527981
C        10.16775811344236    3.25078316767998    7.79989989533233
C         9.14643015126531    2.37927288161216    9.99523730413350
C         9.18043106852775    3.51783386859420    8.93289176462948
C         3.39726400054482    4.70993435719121    4.03667057018870
C         9.26943508286848    6.83522424377817    5.80524354401773
C         9.43446183521383    4.88716696901061    9.56539434833837
C         5.62609114963645    0.84783108300911    8.18353139883052
C         7.51884640149574    2.35099830161630    3.54717901248523
C         5.89221067594104    6.60483842896051    9.69798707175470
C         5.63493859310419    8.12246072188698    7.65210341362887
C         4.10346436971825    2.37181864328933    4.68021533173542
C         8.48074836456317    0.47315104471971    4.93525606601911
C         4.01965903585836    6.16471577116699    8.07589939024471
H        10.04968503600879    2.23325413475101    7.43275673760726
H         4.44336668324398    2.26853980213908    3.65096593405698
H         8.10885374064452    6.07264979092581    3.44688871979627
H         6.21122483128959    0.75258975391270    7.26872204494611
H         8.75199945806021    5.05416062307101   10.39647381004825
H         4.94944332573730    3.52552306793220   10.28892413555117
H         3.91366423016606    4.62197261260333    3.08238050962210
H         4.58474854259386    0.61674390013544    7.97073345785353
H         3.57008937761782    3.93784068183850    6.05399119253285
H         9.14889119288685    7.90670392523813    5.66819232309970
H         9.25881285039262    5.65446368771671    8.81578022161509
H         3.83326948689229    2.29261476143433    9.69435125006686
H         9.64651322334137    6.63920945876719    6.80685277663694
H        10.45891721613303    4.95778049754202    9.92479126761645
H         6.44927978221204    5.87693291228875    4.05000744055286
H         5.20961906471895    1.82228376156143   10.71561287595309
H         9.98711225085343    6.45255005507084    5.08385754216414
H        11.19245769873308    3.39842125577893    8.13516856640100
H         6.01014937141035    8.83802262352969    8.38893464250197
H         7.22024479755376    7.48874028151843    4.05906006012804
H         9.93458555052201    3.93290331221609    6.98280740572237
H         6.00619121519384    0.17200655051086    8.94599385212300
H         3.67146914010188    6.33438717358873    7.05904700560354
H         4.03827066958395    5.08936021449754    8.25032614341148
H         7.58865994939145   -0.12881514016960    4.77137838591112
H         4.72283233126685    8.51793113330414    7.19662917506581
H         9.82528460891057    1.55646496532490    9.75401576900028
H         9.02747910541239    2.56614741642779    5.06479560762352
H         6.73858209811999    1.64627851143413    3.26462183331778
H         8.90054993457918    0.20839715443993    5.90375860294501
H         4.78841044149335    1.84262739288291    5.34481685255029
H         8.29282808833455    2.35183632869326    2.78204921778502
H         3.40679539076015    5.75595328368743    4.33717286954972
H         2.36701499829382    4.38410948557575    3.91611001148926
H         9.35632393616254    2.73536193509172   11.00777433039372
H         5.20469032078919    7.14779944769959   10.34290114307662
H         7.08926467873381    3.34924674117329    3.64798291102008
H         9.20903398196337    0.24981328132660    4.15932900485839
H         6.89200389187098    7.01896844374596    9.81255450414820
H         5.91721488849825    5.55857632348475    9.99182877991733
H         3.10099060228546    1.95730280599236    4.76780925656092
H         3.34316476889130    6.65036827154286    8.77632552543172

