15
CSD_code = PAMYAD | q = 0 | S = 0 | Stoichiometry = C7H5CoO2 | MND = 7
Co        1.60424222773583    4.15632857532740    1.86177789399939
O         4.31403221839621    5.08627955332072    1.50891797876781
O         1.76297804815660    2.41922841423741   -0.43819411405040
C         1.17155668698859    5.08924305608666    3.65388495782321
C         0.34198070052917    5.68198523505572    2.65151569161918
C        -0.44199517633010    4.66394280372104    2.10004995766601
C        -0.12473111917748    3.44297009588646    2.78234796598371
C         0.81711838004932    3.72408244647380    3.79024726492143
C         3.23781488031816    4.72146164657417    1.65396356741429
C         1.69175259550457    3.10599860384314    0.47575916610102
H         1.79569744581456    5.64240674943273    4.33990018348122
H         0.26576381541570    6.73760142190073    2.44555152253623
H        -1.24463033017071    4.78587272565299    1.38996819361923
H        -0.66871990392903    2.51768797418272    2.66761057592393
H         1.14253953069864    3.05671069830431    4.57149919419375

