53
CSD_code = PAMYIN | q = 1 | S = 0 | Stoichiometry = C18H29ClCoN4(1+) | MND = 6
Co        1.05120433788472    8.97361487822437   15.75973722211089
Cl        1.73477599796357   10.90377448337766   14.70172460149998
N         2.65073867120560    9.14665883041970   16.88569469603282
H         2.97884171378976   10.06174287075993   16.55278954753399
N         2.16899054995463    7.84590148800803   14.56093368607812
H         1.95062986245064    6.87711910012210   14.81329093491818
N        -0.57173575165468    8.84601115541247   14.61510559078250
H        -1.01960760104046    7.96049555580949   14.87109422229346
N        -0.02081196243113   10.12183886888026   16.93863917557357
H         0.30528046832028   11.03729529033970   16.60485922572631
C         0.50640372464304    7.44156031201702   16.67574575470879
C         0.14169200576810    6.44894736109891   17.26037664482544
C        -0.28593901131425    5.29071769667176   17.96259537307238
C        -0.86987654535622    5.41333179113055   19.22291427993902
H        -0.99398696779331    6.39345820145682   19.66242097125080
C        -1.28634627145645    4.28482052761692   19.90248664851515
H        -1.73845638655537    4.38389283418608   20.87787345860074
C        -1.12562482312974    3.03035639688594   19.33605271550198
H        -1.45236857940587    2.15144392080882   19.86991713113417
C        -0.54520639561540    2.90456340188870   18.08407002562216
H        -0.41937737221491    1.92763141149486   17.64200211163621
C        -0.12551689277211    4.02687741802448   17.39612729014635
H         0.32724419818532    3.93182207346507   16.41890195649125
C         3.63823999187906    8.15024486889286   16.45394122843410
H         3.36673119869513    7.18407685416219   16.89005780353478
H         4.64648086239642    8.41708472428109   16.78864074408270
C         3.57067071507006    8.08419606070377   14.93543288649437
H         3.87554927977111    9.04484759525447   14.51167112147332
H         4.22819234088651    7.30217045003434   14.54168820622782
C         1.97555975044361    7.96699344066021   13.11114043228971
H         2.63422113343730    7.25929419821185   12.59397652238063
H         2.25826396807836    8.97944728963132   12.81457644908401
C         0.52815873184907    7.70790798345263   12.70839276160073
H         0.48120678363117    7.63797796950684   11.62176813731479
H         0.18728087648078    6.75442667936238   13.12048890439713
C        -0.39619572624740    8.83374385538353   13.15808092419323
H        -1.37326223555986    8.72405481380977   12.67296693324357
H         0.03036297185010    9.79387404832440   12.85948880653170
C        -1.47713144960488    9.92522266440034   15.03609948298547
H        -2.49706926678151    9.75428234045017   14.67639235397446
H        -1.10761377596633   10.86236021257553   14.61108814756437
C        -1.43230504482207    9.99920999174086   16.55503971938368
H        -2.02051948262223   10.84711260423721   16.92229222643843
H        -1.83014441042290    9.07838648929551   16.99230470687002
C         0.15988977258886   10.08531798424422   18.39221543379695
H        -0.15120666030947    9.10060124011244   18.75002381983825
H        -0.47920034440215   10.84435853945784   18.85879449782591
C         1.61085572291313   10.34209017263872   18.78459566013628
H         1.94796040998781   11.28820166366702   18.35411228480443
H         1.66587330807190   10.43345032912731   19.86908273021968
C         2.53984573689443    9.21546410739121   18.34524300843742
H         3.53341424175656    9.37860943944588   18.77929189453128
H         2.15694363062986    8.25691552144261   18.70515890791482

