36
CSD_code = PAMZOV | q = 0 | S = 0 | Stoichiometry = C18H12ClN2O2Rh | MND = 4
Rh        2.17012492275241    4.18029273400290    9.69152207544310
Cl        3.96837518384011    4.72848528641529   10.88247371127299
O         4.17306548232805    2.64379732310394    8.08150312446168
O        -0.32129559726593    3.54668285719985    8.16862516091758
N         0.77260972883731    5.02577037386955   12.26233907593868
N         1.13511447315782    6.70895734101451   10.98320115885862
C         3.34154020965451    3.19469552861323    8.63449960866194
C         0.63926224919471    3.78444446376762    8.75355432379526
C         1.20760900420957    5.35579462534910   11.03796766546137
C         0.41106109456357    6.13500532692339   12.99475813717688
C         0.64337459717523    7.23014916306130   12.17557866968221
C         0.50384915937562    8.62493946963959   12.31353565134785
H         0.11994625789096    9.01657999032861   13.24179923200083
C         0.86646137933659    9.42621665361575   11.27501892031800
H         0.77696861407767   10.49792066621931   11.35052705392941
C         1.37922351764357    8.85978705463834   10.07477797329149
H         1.67327940484296    9.50669002239636    9.26512776037144
C         1.50421256726352    7.51865401002665    9.94971265011573
H         1.89971480102213    7.00912213540250    9.07510011584969
C         0.72653547299836    3.68012350542703   12.76214714158505
H        -0.30588946337192    3.37289352043115   12.94153012950168
H         1.28359573703856    3.61157396552294   13.69758449665269
H         1.18725455575085    3.02298788478370   12.01269778263663
C        -0.07731335470495    6.07308767095596   14.29557671661025
C        -0.49833042746390    5.99365617116170   15.42775350288299
C        -0.98561622655834    5.91813466481576   16.74556083489889
C        -1.11044801548889    4.67920663163417   17.37947871986125
H        -0.83029939290365    3.78043604379195   16.84940363658844
C        -1.58752413725208    4.61221233760836   18.67337714865311
H        -1.68186682969112    3.65279288920582   19.16051747337921
C        -1.94438564129696    5.76955303177357   19.34797986929922
H        -2.31639208992821    5.71186854515370   20.35993912818887
C        -1.82286553418742    7.00111522077582   18.72298781470300
H        -2.10074146955036    7.90281350666728   19.24879022200751
C        -1.34699312916703    7.08170431469749   17.42953706827209
H        -1.24921710413201    8.03805507001180   16.93681624539667

