39
CSD_code = PAMZEL | q = 0 | S = 0 | Stoichiometry = C19H11ClF3N2O2Rh | MND = 4
Rh        7.03171850877041   10.08161321972671   10.30568199999782
Cl        8.82803434905793    9.76090357047888   11.57911239782786
F         1.07651452730945   10.37347279091664   21.39512249145561
F         3.01561920979103   11.00901400903366   22.07074794906188
F         2.42948090966287    8.94865628979923   22.26912734357435
O         4.54434998229760   10.42442721435496    8.68506085173646
O         8.99866722678382   11.43807093057444    8.50107637835587
N         6.08205936531837    7.72910319699789   11.94524544275881
N         5.65121778541147    9.56600502948640   12.96750623193149
C         5.50203293676117   10.29694788085475    9.30704058966038
C         8.18229025804398   10.94400110244091    9.12455183974576
C         6.10009940825697    9.08038640530469   11.80340298088442
C         5.33317482536488    8.55965894386402   13.85476493705006
C         5.61094098599897    7.36679053239410   13.20055157270920
C         5.52796896834016    6.00253636753073   13.53973857124292
H         5.15887675231794    5.73281019305809   14.51606806764085
C         5.92590463207445    5.07537959732551   12.62556243048459
H         5.88032888313051    4.02316259071553   12.85574827548950
C         6.41734235825469    5.48259937442630   11.35501818622757
H         6.74013212051672    4.73856884891122   10.64615504036695
C         6.48674856714457    6.79657997493432   11.03774053675084
H         6.86314375961441    7.19098718558756   10.09765057646678
C         5.55286163431543   10.96690027673210   13.26873872517769
H         5.97954763572939   11.52645641281496   12.42577365085570
H         6.11558759158113   11.19272866848737   14.17563372594913
H         4.51012788261306   11.25511903907697   13.41675745780543
C         4.84025283364451    8.78634130869142   15.13323593744367
C         4.41214423348621    9.00919131073834   16.24409036065564
C         3.91460886651337    9.25068517124818   17.53585498377113
C         3.76096420564360   10.56269494435753   17.99646413636825
H         4.02846919777354   11.38780742587747   17.35418530171101
C         3.27121992300463   10.79814888452876   19.26322131899437
H         3.15285522702690   11.80796170618781   19.62552663794377
C         2.93276791695881    9.72631146135776   20.08300908592390
C         3.07798879410754    8.41865012905953   19.63502926534411
H         2.81105883883235    7.59562588083000   20.27993654499886
C         3.56863960000202    8.18148506430492   18.36814679787518
H         3.68777906938330    7.17001594484786   18.01114434406324
C         2.37418022915831   10.00610112214258   21.44717703370179

