79
CSD_code = PANCUF | q = 1 | S = 0 | Stoichiometry = C28H42AuN6S2(1+) | MND = 4
C        12.15172643336197   -6.60274779422067    5.40255084247899
C        11.27773384131668   -5.17820203204975    7.14411352780368
C         7.95622204041856   -4.72577494702127    7.97024045817938
C         7.84475690785577   -7.56172559138723    4.47685369331476
C         7.77214810962583   -8.91781740124792    4.77259932037769
H         8.33688522767465   -9.31335855177659    5.60413950423174
C         6.98917427147724   -9.77976478088655    4.02479345240545
H         6.95527565539695  -10.82782575171976    4.27780798326985
C         6.23958259073110   -9.29207831435892    2.96823023029561
H         5.61065463525058   -9.95292736882293    2.39272465658591
C         6.29444644338217   -7.94699094523695    2.66469578938274
H         5.68341861735136   -7.55907221096219    1.85808111920390
C         7.09901916831781   -7.08170341237035    3.40523200814831
C         7.13332450758685   -5.63027126433285    3.00239363126295
H         7.77176247319567   -5.05717081536790    3.67804482734979
H         6.12491817864084   -5.20922120646852    3.03264231626122
C        11.86460648613618   -4.25455399121997    8.14374422218301
C        11.56880056596238   -4.38283748699177    9.49524902977128
H        10.90739470833703   -5.16905464344559    9.82623982901563
C        12.13889264207226   -3.51840183309233   10.41146303179909
H        11.91316645387036   -3.62634251756181   11.46221423537868
C        12.99980557837432   -2.52000061510287    9.98571633101986
H        13.43618119487631   -1.84099520618450   10.70258013950056
C        13.30594688377092   -2.39909703960519    8.64072184416907
H        13.98350779430758   -1.62759570418577    8.30709065112289
C        12.74841657330403   -3.26895286942169    7.72116862104620
H        12.98599717927073   -3.18196648086213    6.67094557697931
C         5.79386909046385   -4.12076784402077    8.93065315216799
H         5.40577654325739   -4.29549440254954    7.92328169538986
H         5.42353685483360   -3.15306228267399    9.27885787232943
C         5.30396783381527   -5.23510744085709    9.86015922182350
H         5.66662019115526   -6.19214037954402    9.48115147771349
H         5.72454203615835   -5.08584895251456   10.85678705421088
C         3.78408802228419   -5.25498336971200    9.93856499101579
H         3.40728688246191   -4.30945914964989   10.32202154853496
H         3.45029441162789   -6.05035883973573   10.59913048709762
H         3.35505363318084   -5.42340184359733    8.95363697623499
C         7.93384797826084   -3.24623947715752    9.85475506057380
H         8.82404905295491   -3.78789478578878   10.18095509953395
H         7.26973107915776   -3.10574975416108   10.70902993613189
C         8.35973016509814   -1.89051952349885    9.28782839923315
H         7.47608980223032   -1.34417220279771    8.95098434608231
H         9.00409128787020   -2.06652749385575    8.42557767311696
C         9.11045607280602   -1.07323219142963   10.32986472769562
H         8.48841268108768   -0.90147210104402   11.20527472595252
H         9.39820981064630   -0.10913380739177    9.91950876070476
H        10.01158892085528   -1.59638565633732   10.64041629319434
C        14.43653659055042   -7.11795199232111    5.92901484166413
H        14.45041616433836   -6.09812819698979    6.31868481431530
H        15.31925202580560   -7.28158622808319    5.30876022327805
C        14.41203181328410   -8.10452707678222    7.09136288517245
H        13.55199819862483   -7.90805599003540    7.72575472138054
H        15.31391410653579   -7.99388753976341    7.68589392358523
H        14.35689697983775   -9.12904826606161    6.73019402435163
C        13.38514359779353   -8.11778993784588    3.92276065335326
H        12.41567433998951   -8.57783685590018    3.71614369790498
H        14.09976253986139   -8.90742528829672    4.16361181011037
C        13.85222381481273   -7.34172814767404    2.69412242095774
H        13.12884197556351   -6.56890433376320    2.44699394755051
H        13.94819609759814   -8.01550766668235    1.84800911111064
H        14.81569141287349   -6.87327165909527    2.87812997900379
C         7.47015829754511   -4.12727574957194    1.08953296110388
H         8.01665510619319   -3.41996768959448    1.71131029189150
H         6.41494939961058   -3.85972614354331    1.09765328287847
H         7.84328348687347   -4.05921385138174    0.06907033082817
C         9.07227469021903   -5.89606047252514    1.53177668298026
H         9.19800278050774   -6.89504055127400    1.94585223820536
H         9.68949510135915   -5.21683399761438    2.11621802174743
H         9.40995831340892   -5.88889308172029    0.49782261124060
N        12.18438534107647   -5.84459401870656    6.45213395467759
N         9.97027752379652   -5.32758920989900    7.06543516834073
N         9.23168830441041   -4.60135113264181    7.94557191042264
N         7.23493523176372   -4.05237019477102    8.87101723711535
N        13.26506555206789   -7.26202616776563    5.08153212072308
N         7.66060274354983   -5.48758809096730    1.61297559725818
H         7.11819280093960   -6.14611914995695    1.03928107777417
S        10.79973748037213   -6.76491557383474    4.28647687033702
S         7.06727026432027   -5.76623748982128    6.81806873230103
Au        8.95628041239678   -6.41744598083401    5.68371748510152

