46
CSD_code = PANCOY | q = 0 | S = 0 | Stoichiometry = C12H23F2N5NiO3 | MND = 6
Ni        2.71070157224690    2.20549950731549   12.96530134849867
F         1.08403700981824    1.60061222428770   15.57096147500046
F         2.29703868595828    0.71627319953859   17.14838704558898
C         2.37669675484755    1.18297610253782   15.88826323929602
C         3.25361479725638    2.44947174746858   15.81081234950017
C         3.83497433123045    4.31036008986966   14.50090231689104
H         4.88996959276749    4.31917479072402   14.80248536553454
H         3.29986348514422    4.94691159009151   15.21794996583452
C         3.67215689702494    4.82345002525165   13.06871598201959
H         3.52522852993450    5.91279932560696   13.05808558236871
H         4.56587440193385    4.58779460317540   12.48929746231389
C         1.23756891342865    4.64655185859050   12.88500122043252
H         1.10593518723845    5.69457837614699   12.57952989880343
H         1.20387860415745    4.58484661288733   13.97393149341040
C         0.11449973429315    3.77531047098275   12.31243789225773
H        -0.85581926142790    4.14939943336457   12.66616000120782
H         0.12183911717499    3.84565550834146   11.22054805318258
C        -0.01719343660721    1.36351461410400   11.75782947631477
H        -1.01267253129665    1.53048050609490   11.31680861746750
H        -0.02930619019365    0.41422142071784   12.29315584149095
C         1.01873772023304    1.29157506583597   10.62008914493962
H         0.82224154715676    0.39623101072145   10.01762723874512
H         0.88679065742816    2.16281442760103    9.97186737846439
C         3.01041238158150   -0.04513948645677   11.25777504628040
H         4.08631258954840    0.07975612360590   11.12451662083190
H         2.63699206732558   -0.72934216253559   10.48409369073811
C         2.74379709603377   -0.61388944281303   12.64604873670736
H         1.76317426676306   -1.10643585505626   12.68708749894554
H         3.49254234547064   -1.37227907727387   12.90697656799744
C         2.70582925670489    0.04978821516651   14.89412412110356
C         6.36507743891611    2.47240857282894   12.52894684197084
H         6.43745360870016    3.19404023813280   11.71517769961599
H         7.19448928190277    1.76361942574443   12.43907759179453
H         6.44990385925326    2.99594976217356   13.48464190131327
N         3.29091905374793    2.95904170495143   14.58654465177972
N         2.53922010926095    4.13029418287592   12.43763243657157
H         2.59539803144571    4.28358575913720   11.42989367368554
N         0.36552061419407    2.39446657528394   12.70507439703322
H        -0.02765585414159    2.20989553236390   13.62205541823137
N         2.39751016484038    1.29001496275751   11.12377818858323
H         2.97219546956839    1.80457672871598   10.46023348020418
N         2.77020409443905    0.46381925857593   13.63200264701148
O         3.76814510004634    2.94669346399096   16.80128708151431
O         2.81685487225202   -1.11013118856077   15.26217717560287
O         5.12458403553365    1.80861511862207   12.39976791903151
H         5.06016399686472    1.15874907650893   13.11653822388396

