13
CSD_code = PANCUC | q = 1 | S = 0 | Stoichiometry = C4H6AuN2(1+) | MND = 2
Au        5.12500316274067    5.12499922050912    5.12501210977416
N         4.03634346657930    4.03672344087524    4.03677154933595
C         3.37379850474075    3.37419521341917    3.37414156679808
C         2.55902573859134    2.55976458613814    2.55976082259903
H         3.12969752411297    1.69671247510648    2.21281785199559
N         6.21366402144136    6.21320955485087    6.21331715005976
H         2.21214255094154    3.13073017627032    1.69687246212567
H         1.69613702385939    2.21309687336463    3.13086280920855
C         6.87621282876536    6.87591731177675    6.87576557291367
C         7.69099238173915    7.69025979341114    7.69022799436520
H         7.12034318069195    8.55332339899534    8.03717940076995
H         8.03782941956572    7.11925646371683    8.55311017431136
H         8.55391019623049    8.03691149156595    7.11916053574305

