32
CSD_code = PANFUG | q = 0 | S = 0 | Stoichiometry = C11H13N4OReS2 | MND = 6
Re        9.41826830896889    4.07239325665608    7.56664720605109
S         7.89219871250447    4.40918876884620    9.42278049400075
S        10.96400468107277    3.39478466370902    9.21679581783848
C         8.75602440457015    1.06308525465263    8.34204036748343
H         9.66940047538712    1.15421523209326    8.91966176413590
C         7.99304037705598   -0.08610242775923    8.35796719898536
H         8.28107931132984   -0.93578864860532    8.95348101661028
C         6.84304115489778   -0.09359312085034    7.56732527960490
H         6.18401996537250   -0.94902664648538    7.51530177431207
C         7.28133274878171    2.01219499766405    6.87815120674803
C         6.94418535073096    3.18681159276408    6.09621686776032
C         5.59199978146657    4.29399424939700    4.66498887786177
H         4.69774994700688    4.27296668623974    4.05860764970931
C         7.53818503229687    5.32729492221542    5.53334690403377
H         8.24299179306627    6.14253270687740    5.64523682784234
C         6.42088623652819    5.41750359271708    4.73183914211166
H         6.20307989109627    6.31751667108006    4.18203603256810
C        10.69661237484264    2.95600709292613    6.16762044681293
H        11.43680512843313    3.63797165939234    5.75438160960691
H        10.11066853003330    2.54411386683169    5.34496166192883
H        11.23008252643010    2.14512756270699    6.65857152321282
C         9.15404343294612    4.97460618484424   10.60771454070689
H         9.60016042288193    5.88959076769452   10.21210657716129
H         8.63071881326070    5.18822467588694   11.54173743456925
C        10.19790871296377    3.90201574800552   10.80611845773843
H         9.75755557216691    3.00812605782716   11.25222805230995
H        11.01597482172714    4.25631463085531   11.43387397782551
N         8.41014471017805    2.13117972452095    7.61654648108744
N         6.50293224049886    0.94418747486876    6.83596802262542
N         7.81462228982014    4.21490139880277    6.22401531425589
N         5.85937608805202    3.19897797518620    5.34061729569484
O        10.01000616362846    5.58368342843497    7.18621417680478

