81
CSD_code = PANGOA | q = 0 | S = 0 | Stoichiometry = C42H32FeO4P2 | MND = 6
Fe        0.32621801691956    2.08492317503452    9.98033271818343
P         2.09053981535292    2.95380308136657    9.01521206802967
C         1.32120282405173    3.69492501165716    7.60238399467451
C        -0.04015905412945    3.56270398084836    7.61207480872846
O        -0.67166906401267    2.96438724375860    8.57055368569853
C        -0.88866812357692    4.13566933621276    6.54267504583870
C        -0.47330222665877    4.17282385460566    5.21531096220341
C        -1.29974334443868    4.70637991856948    4.24346830938844
C        -2.54524975948604    5.20826698821232    4.58470969718134
C        -2.96526866575558    5.17187588087923    5.90408383650487
C        -2.14378579686861    4.63648202976134    6.87758922767673
C         3.35117914786370    1.77716586086688    8.43888743334111
C         3.56507124562032    1.55939359655608    7.08449448825020
C         4.51535326830284    0.64144363193379    6.67219731815111
C         5.24995067226645   -0.06631146423799    7.60875117598427
C         5.03118037077559    0.13954595301411    8.96261771952417
C         4.08406473285723    1.05692991577501    9.37802112137063
C         3.09575207941253    4.29433125363527    9.74316003147769
C         4.48112850370206    4.28536490467473    9.84281884164362
C         5.14046288509550    5.37102403907349   10.39467553773611
C         4.42693107184666    6.46733290831145   10.84732624631009
C         3.04412714578357    6.48515757244132   10.74231992482809
C         2.38415891152929    5.40439183528702   10.19274537085412
C        -0.01920250860946    3.29840251024563   11.18089247285288
O        -0.23969109206405    4.02386632280199   12.04170501773619
P        -1.60188419237173    1.06093572515332   10.06176901712699
C        -1.33449292516337   -0.19492477833410    8.84198045787113
C        -0.09525472174067   -0.11656151795539    8.26810573378115
O         0.78355194864632    0.76182911159147    8.63243289390905
C         0.33807672346636   -1.05874449497991    7.21159868550519
C         1.68126956624007   -1.41889776653426    7.14358985517987
C         2.12432360744738   -2.28794777353262    6.16521788155280
C         1.23219396537689   -2.80483143082463    5.24030058720735
C        -0.10502245595813   -2.44709764084982    5.29847977322493
C        -0.55246644609607   -1.57883491269625    6.27722073695619
C        -3.07923161919720    1.99845678003073    9.55633690588865
C        -3.58501369177196    1.89787436214908    8.26714955267245
C        -4.70173243952998    2.62898449500855    7.90371341652261
C        -5.31077984353715    3.46734552937023    8.82273585229345
C        -4.80138642718656    3.57807486328408   10.10766994036602
C        -3.68818237848493    2.84597788308040   10.47569593540162
C        -2.28935571059505    0.23084047453960   11.53614075048008
C        -3.41796878313706   -0.57046876135911   11.39394184074005
C        -3.95394830000586   -1.21521592889417   12.49224578532139
C        -3.37059280115762   -1.05943564805193   13.74020588180631
C        -2.25276990695944   -0.25571127302476   13.88827978071776
C        -1.71196401769141    0.38832294576740   12.78874491683733
C         1.17262136667684    1.21709129350613   11.22922439327019
O         1.75041551635913    0.69842068274394   12.07323633115691
H         1.87259580833161    4.29412213087750    6.89382478015977
H         0.48925116735458    3.76551085589213    4.94338309852320
H        -0.97355669311983    4.72771227351235    3.21353124401104
H        -3.18761632442622    5.62401970441750    3.82199383769908
H        -3.93608574353079    5.56053777335884    6.17568099568197
H        -2.45997642011642    4.60154584555797    7.90926039179057
H         2.97241409027939    2.09900949069434    6.35990358583660
H         4.67756860471582    0.47179905745138    5.61751586416919
H         5.98925423533433   -0.78498447710510    7.28598639633069
H         5.59695003448762   -0.42076472589416    9.69310663046674
H         3.90043885475126    1.21931606665040   10.43182014626269
H         5.04602926865292    3.43547751396087    9.48733748451767
H         6.21822322477997    5.35945100967114   10.47034718042664
H         4.94691669728931    7.30955230735526   11.27944746994188
H         2.48545903796834    7.34158213477735   11.09036423308316
H         1.30518758695630    5.40407380997696   10.09632386435972
H        -2.05267155914256   -0.97451966956402    8.64060176818267
H         2.36590566159559   -1.01086791290616    7.87124475357069
H         3.16871323108419   -2.56163347502629    6.12413516699003
H         1.57725074325961   -3.48258089289724    4.47299147201195
H        -0.80132429306409   -2.84398559069293    4.57366844920786
H        -1.59239385178926   -1.28859677107169    6.30598450689415
H        -3.08632279744201    1.25803340595291    7.55221743150833
H        -5.09266093423923    2.55153984470112    6.89932195055379
H        -6.18140812150324    4.04007995935074    8.53758022992707
H        -5.27318515725704    4.23895498282604   10.82060501782435
H        -3.27943687442461    2.92676266904784   11.47485239475138
H        -3.87371750385200   -0.67707650244250   10.41855977964214
H        -4.82923988669547   -1.83843813069621   12.37905449264760
H        -3.79116794288975   -1.56276869799498   14.59829136146760
H        -1.80228701758291   -0.12943385641191   14.86189938166416
H        -0.84359421516801    1.02460830622781   12.89424067991838

