33
CSD_code = PANGUI | q = 1 | S = 0 | Stoichiometry = C9H14N5O4Pd(1+) | MND = 4
Pd       -0.89529707764701    9.61172017139492    7.17416800103111
N        -0.69065453818033   11.48660356566710    6.49989871062770
C        -1.80645484924379   12.22703851173810    6.65238147940952
C        -1.88168735725835   13.53838938452190    6.20057218389075
H        -2.81161455108355   14.06987526194112    6.33418714647812
C        -2.97533231598855   11.54209498557806    7.30165776048141
O        -4.10135999942614   12.00665284795998    7.40256276764855
N        -2.59183607535781   10.34814269713972    7.76092079572658
O        -3.58903190318438    9.51729515390940    8.28432979123581
H        -4.42022218358205   10.03121343706832    8.20133271907004
C        -0.78002974649188   14.11610529056441    5.59261081892078
H        -0.84299483265326   15.12824674545794    5.22586418761964
C         0.38017094030574   13.35517153685055    5.45877123135282
C         1.66335286301711   13.78217540500613    4.82459279206696
O         2.55620970373386   12.98041854207806    4.58547252830753
N         1.79384900006051   15.07712549878317    4.51805477259519
H         1.17668968630031   15.84314561813009    4.72968451343370
O         2.97869281525898   15.50844971279856    3.94490106832473
H         3.51839105317234   14.69780300959388    3.84057441244944
C         0.36722251585541   12.04031016287860    5.92476702254428
H         1.27258375633393   11.45327953682751    5.80203877392999
N        -1.27687162186975    7.71993541007733    7.93415383261104
H        -1.73116782604185    7.77620883893793    8.85091540573593
H        -1.94757462776548    7.26405182345018    7.30475203040065
C        -0.01611567890900    6.96210270148836    7.99008964340870
H        -0.19007020314340    5.88542446425518    8.09576767370748
H         0.55988901029225    7.30706838898888    8.85581359511057
C         0.76556775051486    7.24402410744237    6.70483183118111
H         1.72137180121257    6.70841563351309    6.71825498349707
H         0.18653160453574    6.89973016978225    5.84103635470663
N         0.95942932859036    8.70502696826625    6.58117207407931
H         1.30727034507979    8.92659856344634    5.64641598806559
H         1.67799321355672    9.00705585446463    7.24755311034847

