34
CSD_code = PANHER | q = 0 | S = 0 | Stoichiometry = C11H10BN6O5Re | MND = 6
Re        3.45350588449454    1.30414303936613    4.57206228408117
O         2.91456970907065    1.19264233489515    6.14571390668809
O         3.09728864399445   -0.37056275360612    3.51365488376234
O         3.97138147849000   -2.32282730559141    2.88732335602428
O         5.31342194613383    0.50132831174644    4.45563843641027
O         6.40550997421090   -1.39179291678085    4.00866351676328
N         3.73057643690455    4.31784914500132    4.33651994870799
N         4.18120186289677    3.22891491277568    4.97129910977002
N         1.56944576560356    3.40038891352707    3.45890881208056
N         1.64977995861282    2.15909869059998    3.95433592407836
N         3.62150317493049    3.27546709467976    2.12946254462236
N         3.99509334425206    2.05169173837529    2.53095916904984
C         4.05207616584752   -1.23555709118486    3.39792311486363
C         5.41623534845487   -0.70475971574136    4.00680655089218
C         5.05794999666080    3.61211994659943    5.89336591782805
C         5.17917346618461    4.99597185604429    5.85799850055463
C         4.32271239656515    5.39986371447735    4.85018644400223
C         0.42182877900669    1.65608991014950    4.02751737162634
C        -0.48589317318734    2.60181271731649    3.56727229602081
C         0.28917271223630    3.69068474241980    3.21150085807687
C         4.65451789482626    1.48197458300981    1.52838393956208
C         4.71049469944971    2.35714446618934    0.44783861836103
C         4.04019105477211    3.48552671432876    0.87634064379263
B         2.84103811411036    4.18353190875046    3.08859967524978
H         2.58921390082633    5.22985958253149    2.61188347198380
H         5.53775161163856    2.88881292476476    6.52285354351028
H         5.79931011805137    5.61202493554052    6.47454420239261
H         4.10993895080661    6.38101700118168    4.47724762224047
H         0.25961653579371    0.66581587920940    4.40524904675814
H        -1.54939996140951    2.50745670597766    3.50186385438730
H         0.00242558890815    4.63726359942485    2.80070595071414
H         5.05929096473521    0.49089087110990    1.60544430797256
H         5.17224203035199    2.18540433917630   -0.50154357981892
H         3.84043462577591    4.40890920373601    0.37217575699082

