97
CSD_code = PANJIZ | q = 0 | S = 0 | Stoichiometry = C42H26F24N4Pd | MND = 4
Pd       14.57132379446058   -0.00034811376352    0.00016799106227
N        15.82388087356970    1.27341305810242    0.96858501949381
N        13.31506688017679    0.38218093123708    1.57656454998158
F        10.02215193778547    0.83481394797471   -2.65740895303853
F        11.39368743019597    2.46573987306033   -2.40514058035148
F        16.24663723242539    5.44015966133069   -3.29250768446198
F         9.29292586971878    2.76177017817130   -2.03581126144412
F        14.54833558129101    5.08704987861873   -2.01924377795170
F        20.56432129916703    1.76697383764727   -0.79083549608869
F        14.99080742251202    3.72826116545592   -3.62377999785735
F         8.53735523344845   -0.29939979953938    3.36259415015772
F        20.53295003650646    3.51238700760396   -2.05295073211317
F         7.31084796989672    0.99532309764925    2.15533023709908
F         8.61927271058683    1.82661406255035    3.64506845001893
F        20.52267432052190    3.72761949252321    0.08699398037109
C        13.86217365548047   -0.01800429019173    2.73544496465777
C        16.52040536102169    2.09524461611015    0.10795406600801
C        15.55676890181726    4.48422434214871   -2.66492509925738
C        18.52945020823434    2.95761071358660   -0.90761355508354
C        17.91693512395313    2.16152631868758    0.04726476370409
H        18.52263357948995    1.56476370838008    0.71099484183338
C        16.02975893065253    1.12147474663056    2.25308258056896
C        16.40612138922778    3.66188186411986   -1.72880655947245
C        17.08710106476283    1.88180469995822    2.99790318587141
H        17.36048785314293    2.79706634163720    2.47886330152174
H        17.97730796199902    1.26488726922170    3.11224978594907
H        16.73210569253386    2.13063547416942    3.99460495298631
C        10.91274682705206    0.63746213249833    2.15728788445854
H        11.01938409149618    0.36786319437235    3.19201006756397
C         9.64531467334849    0.96216733060167    1.70392518493705
C        12.01812482522533    0.67940508644404    1.28911960044691
C        15.77072244636052    2.84182190598904   -0.81421839940703
H        14.68366274083636    2.78606466951666   -0.78180200019826
C        10.50075102017577    1.47741378264426   -0.44380183045815
C        11.77344874702346    1.16151107446467   -0.01728113965809
H        12.62312983059452    1.30972247968636   -0.69208994373299
C         9.40119950422014    1.36321842432815    0.40007291508166
H         8.40574731256176    1.59601732555656    0.06134459719109
C        15.18615592128942    0.28745617455228    3.02236042786122
H        15.54796208160455    0.01717516229337    4.00209226855965
C        10.29945224814741    1.90320302011955   -1.87177525539286
C         8.52053016871170    0.87047237606068    2.69965414591389
C        20.03517743398135    2.99460699369292   -0.93037194464363
C        13.09335830415757   -0.72429882678011    3.81829862718784
H        12.29495901321209   -1.33488287007895    3.40381561159945
H        12.66986057489486   -0.00613703293287    4.52035648355026
H        13.76889437457241   -1.36704193841784    4.37651976396978
C        17.79380228402504    3.72947473993479   -1.79486900403601
H        18.28495465545886    4.35913432174500   -2.51933273459025
N        13.31812899651086   -1.27342925347017   -0.96848177895031
N        15.82688087657260   -0.38224819074839   -1.57677257632274
F        19.12076566723041   -0.83478521524398    2.65693097169870
F        17.74836378695303   -2.46459594889412    2.40541819019073
F        12.89556472201373   -5.44013394871337    3.29267628059940
F        19.84843874141290   -2.76199572606809    2.03561499793884
F        14.59381626428374   -5.08699164100495    2.01935389272375
F         8.57774315888379   -1.76704328382785    0.79095667649769
F        14.15135229948451   -3.72818926386402    3.62387680813219
F        20.60468412595735    0.29947019301388   -3.36264523538869
F         8.60916471683571   -3.51233560372151    2.05324041238046
F        21.83105909871108   -0.99553145821456   -2.15554933062974
F        20.52246686962003   -1.82650846693162   -3.64532033858050
F         8.61936852051517   -3.72777450513888   -0.08668467596262
C        15.27968816391782    0.01797571171617   -2.73558489395839
C        12.62163988479777   -2.09528110700087   -0.10783503295505
C        13.58538076888313   -4.48418761009963    2.66505672672072
C        10.61262277136305   -2.95765706437647    0.90778498110381
C        11.22510939143333   -2.16158448912093   -0.04712279013340
H        10.61940089186820   -1.56486018000483   -0.71088068137036
C        13.11221564055776   -1.12157381719089   -2.25300187266867
C        12.73597998335933   -3.66189481086315    1.72894018872359
C        12.05502509360810   -1.88215113601082   -2.99778746666976
H        11.78173587546428   -2.79739573114194   -2.47866222204566
H        11.16475233034312   -1.26535699291770   -3.11225507267711
H        12.41009549236337   -2.13104582665074   -3.99444881624627
C        18.22918548082614   -0.63739496367142   -2.15747755435870
H        18.12256555199421   -0.36778525600721   -3.19220039896477
C        19.49660875643201   -0.96204025034961   -1.70405291252351
C        17.12379935436181   -0.67944967788140   -1.28936353022622
C        13.37134961583379   -2.84185383174954    0.81431718539797
H        14.45840631518117   -2.78608636628651    0.78187641596855
C        18.64111632751294   -1.47722010180764    0.44368860273165
C        17.36840565011091   -1.16149948859991    0.01705384647769
H        16.51864889009893   -1.30946396458520    0.69183834225394
C        19.74069397373881   -1.36292492320561   -0.40014245922097
H        20.73613182665077   -1.59578835996459   -0.06140724168644
C        13.95570166232064   -0.28753262708170   -3.02238555149485
H        13.59381956546049   -0.01733587485715   -4.00211232623344
C        18.84256246667694   -1.90289891151525    1.87174937830933
C        20.62137386310904   -0.87046927765553   -2.69981437969291
C         9.10689635394137   -2.99466232699598    0.93059445136715
C        16.04841930234843    0.72436306057218   -3.81842951061240
H        16.84680941165406    1.33497179549975   -3.40395602446272
H        16.47192940049099    0.00623189630725   -4.52050807033304
H        15.37282918364193    1.36708554179500   -4.37661122630635
C        11.34830128834264   -3.72949756563308    1.79503867093303
H        10.85717423279764   -4.35914676921042    2.51952850015512

