48
CSD_code = PANJOD | q = 0 | S = 0 | Stoichiometry = C22H22Cl2SiZr | MND = 12
Zr        1.83478074966537    2.94866035911175   -1.20006181106847
Cl        2.48126334684184    2.31436251301805    0.95021443378102
Cl       -0.44498070086648    2.76269816663507   -0.74201888018834
Si        3.52122425014583    3.79311002905712   -3.86501911248158
C         2.89223627544483    4.22349583969328   -5.61916610182641
C         5.41011193038885    3.99140564456011   -4.09005197691667
C         2.92419822052007    2.12210240264106   -3.18273970917634
C         3.50406623612607    1.39155158771966   -2.09416570787547
C         1.33774674063903    0.65581267538387   -2.26898230980072
C         2.55173258170837    0.51631560452437   -1.54086605720581
C         0.10276588658464   -0.00959745251636   -2.17845839376528
C        -0.89730641760418    0.32602647452939   -3.05606222265585
C        -0.69288973917580    1.29904766898479   -4.04706641523496
C         0.50707279149598    1.95796799699219   -4.17522728824252
C         1.55586746991850    1.66621254330737   -3.28223580507216
C         4.92322708672418    1.45358750364046   -1.60248052544369
C         2.77311086130366    4.79306295223623   -2.43153472244967
C         1.38831212538083    5.11781342799766   -2.25212172993857
C         1.12992323834100    5.39012752422459   -0.89637881535887
C         2.34688236916352    5.25711784084846   -0.17211181096530
C         2.66666834643235    5.47032201306915    1.18006626039775
C         3.96324874613169    5.28956174064351    1.59133218021056
C         4.96561704566976    4.92035090088204    0.68050082799216
C         3.37177977352559    4.86904862017757   -1.11776512881068
C         4.69192932163141    4.71849024402672   -0.65171624205081
C         0.32876760420129    5.23308480888249   -3.31222876153017
H         1.81666784415435    4.22318817587563   -5.73726300316937
H         3.25241786988392    5.20644043786582   -5.90549347303472
H         3.29586934840532    3.51053133123855   -6.33070839956194
H         6.00680106996027    3.74546036822693   -3.22157841289622
H         5.74850770093366    3.36319930683248   -4.90780770021497
H         5.63465829189895    5.01907029859230   -4.35658924156611
H         5.24261897776278    0.46147748375034   -1.28374048936910
H         5.59572080313721    1.79264610188305   -2.38570366161520
H         5.00570020728773    2.11922117159442   -0.73658655412858
H        -0.34685589537635    6.05195131635413   -3.06504069559684
H         0.76712411304530    5.43529365084644   -4.28567730284355
H        -0.26999492359043    4.31739856216144   -3.36395004593572
H         2.74565717964068   -0.21867841364797   -0.76890345944931
H        -0.04462840171976   -0.77512146714244   -1.42848958368997
H        -1.85452792503001   -0.16903714822456   -2.99870687080084
H        -1.49761788257269    1.52077565798455   -4.73259247468770
H         0.65710837065479    2.65197029052834   -4.98918590170749
H         0.19082634528880    5.75137903737511   -0.49472338965536
H         1.89667412743460    5.77693937923238    1.87528036902027
H         4.22775988558523    5.44334953660597    2.62624310902418
H         5.97835345486317    4.80762629487793    1.03873194613034
H         5.49510329801474    4.50087899691958   -1.34036893857500

