45
CSD_code = PANJUJ | q = 0 | S = 0 | Stoichiometry = C16H10F12N2O4Os | MND = 6
Os       13.40831258844840   -7.96437252935577    2.15625211895171
N        11.53463852191424   -9.01679417349053    1.64000363461783
N        13.20954471854106   -6.32308000729249    0.73192725005245
O        14.06646449528348   -8.79619911789802    0.93743234942446
O        13.82855555924341   -9.37403881699602    3.55753264147378
O        15.14572398932934   -7.19336337162511    2.79761419868505
O        12.48618153984203   -7.07802033533917    3.14585394360834
C        17.22888662102742   -7.84358191953877    3.59814970652698
C        15.34369946232428   -7.13600789796597    5.14879156637140
C        15.69639370775191   -7.89233123834399    3.84486336758491
C        15.11074265912796   -9.35211171850069    3.86443550459576
C        15.27030454452748  -10.21206754978753    5.16022655056156
C        14.97452648400291  -11.71181456373279    4.88002448899743
C        10.64567978069002   -9.15881663791452    2.61903280592025
C         9.60377770783117  -10.06736008667079    2.54364724635348
C         9.48344604623261  -10.85661482278636    1.41065179887066
C        10.41190175696428  -10.69961046741075    0.39248805959388
C        11.42708252797469   -9.77269974445059    0.55068814458275
C        14.09825295470930   -6.25580692579683   -0.25608071300330
C        14.25463253253774   -5.11983570197099   -1.03149552522967
C        13.46107908954457   -4.01391009326567   -0.76920395678432
C        12.53527293109387   -4.09324811829091    0.26035994145590
C        12.44589864128563   -5.26455142562734    0.99149291803945
F        17.93822020893140   -8.73441808500284    4.29088223742485
F        17.72625235545100   -6.64236427877392    3.91555496451303
F        17.50662276654902   -8.03751275719011    2.31290128567696
F        14.06069244513749   -7.29391321873297    5.47633217868701
F        16.07256140830017   -7.52362846150310    6.20212139742106
F        15.53675891985719   -5.82337886799826    5.01185568493429
F        15.86710508206811  -10.05001765948558    2.89414512283660
F        16.48729758125305  -10.15395803306990    5.73374290575704
F        14.39378440606621   -9.79730947925802    6.09688785332160
F        14.82459282098971  -12.36017729551386    6.03895398262530
F        13.86150751322351  -11.91316777943314    4.18265076300676
F        15.97466344130079  -12.29917653967604    4.23420281756229
H        10.79055449845619   -8.52253479115547    3.48312472288489
H         8.91010671444438  -10.15848045619776    3.36391299261906
H         8.68933639987142  -11.58283549692161    1.32510764130226
H        10.35968665089807  -11.29288896263253   -0.50638911903104
H        12.19373327944839   -9.63508191369691   -0.20070137675386
H        14.69829445463188   -7.14398690879973   -0.41258623400429
H        14.99305815233420   -5.10347735009787   -1.81689441236703
H        13.56650338174725   -3.10857598101885   -1.34756800298668
H        11.89868056460928   -3.25771636367429    0.50369246938469
H        11.76158809420433   -5.36766205612020    1.82418208393406

