35
CSD_code = PANKUM | q = 0 | S = 0 | Stoichiometry = C16H15ClN2Pd | MND = 4
Pd        3.90334764900013    1.55656174402696    8.54032371478798
Cl        5.78987404482937    2.45072313251253    7.44665479463840
N         4.19365421402948   -0.07420194608622    7.53361752097592
N         3.74335954616609    3.25100553717178    9.46929966113342
C         3.73403250004551   -0.16736948451050    6.28630333443462
H         2.97099211862244    0.55359043308574    5.99733620673843
C         4.20000819430785   -1.11729794694465    5.39527725803453
H         3.80823121140998   -1.15470646255421    4.39106858260033
C         5.18013053643595   -2.00525836955997    5.81246370379792
H         5.56905273282163   -2.75414098076190    5.13961310494372
C         5.65492836637694   -1.90385962444904    7.11160395046308
H         6.42320037146948   -2.56783998976385    7.47517471375585
C         5.13584090131237   -0.92496777338641    7.93940952216407
H         5.48834502096669   -0.80333481523802    8.96261678075487
C         2.30200380697286    0.79123748138925    9.47051082562974
C         2.44136314767961    0.05239931410290   10.64351185122155
H         3.43285926139378   -0.10984058991120   11.06560348276943
C         1.33741858349471   -0.48387022654723   11.28782730697101
H         1.46559341935587   -1.05496498859605   12.19748416654950
C         0.06959110415840   -0.28975917791773   10.76742299721550
H        -0.79249408947064   -0.70755115742171   11.26796357307352
C        -0.08925346228887    0.44153216217077    9.60301302322246
H        -1.07852089077802    0.59527855122452    9.19333461694234
C         1.01795238571426    0.97582893064134    8.96254358471064
H         0.87609769196226    1.54926762019470    8.04701452076120
C         3.21881435334651    4.28934327306829    8.81857809074626
H         2.64379720928412    4.05775338084233    7.92300131013873
C         3.39999554211941    5.59436740093895    9.23920498650040
H         2.96691595929985    6.40806598896526    8.67915304036285
C         4.15442632137462    5.83378086762012   10.37813964396823
H         4.32090061646675    6.84105045202521   10.72820783754857
C         4.69703411847976    4.74998349696291   11.05194697955148
H         5.29688740419350    4.89055813929810   11.93726556525072
C         4.46791976055255    3.47562994956360   10.56483841343018
H         4.88140034888956    2.59810567782574   11.05907133421558

