66
CSD_code = PANPEB | q = 1 | S = 0 | Stoichiometry = C24H31N7O2PZn(1+) | MND = 5
Zn       11.77646094595840    1.70860087765820    5.97381011455022
P        10.37399286340470    3.93710015376025    3.90618261002149
N        11.27043168982824    3.55799733226442    6.58610027127227
O        13.08084745503771    0.49882967252191    6.54019577448029
N        12.79678151986401    2.54899420721170    4.41525940282130
N        10.71434130242945    0.85339549489227    7.64681870025771
O        13.58080213945680   -1.16335395652283    7.93177441900239
N        10.28215496520026    1.21362320651737    4.73304228393020
N        14.10178056966027    3.18970025429675    2.78805080078224
H        14.92007226302739    3.26881115944112    2.20473571013308
C        10.61752449448290    4.34330985751458    5.66944244435755
N        10.77514268788153    5.45386022326217    7.54414988384612
H        10.71143480093959    6.17575812108204    8.24501276093537
C        14.00066138693476    2.42867062140781    3.89862765308689
C         9.69048120927146    2.25066140363329    4.05488872973090
C        12.09581847479892    3.41642752884008    3.61145625055506
N         8.52996408569436    0.43555283664416    3.69375946521844
H         7.83664271018683   -0.21372149209319    3.35606744200555
C         8.59188531855880    1.76419988607933    3.39943976755370
H         7.87741985561983    2.25655331374279    2.77269642533168
C        12.84409954170155   -0.29886360011580    7.51144629681957
C        12.91110738031325    3.81951717352102    2.58994323687927
H        12.72888505511823    4.48216910929043    1.76931112230970
C        10.30630510971848    5.53436214079928    6.26696996374224
H         9.79955888567017    6.39639943885595    5.88558622833254
C        15.12145828175437    1.62413172850123    4.45883928805494
H        14.68683569220217    0.91836382562442    5.17074448223100
C        11.07576873176411   -0.87665043654825    9.25092022566370
H        11.74933062655698   -1.63232723573047    9.62287141453873
C        11.47826010989188   -0.10049036294113    8.17215777901879
C        11.35546547954191    4.24725278271323    7.70411113753600
C         9.51650305090898    1.07273313626666    8.17562538238375
H         8.92899718766900    1.85739702255585    7.71607459521995
C        12.03384420386950    3.77840274594722    8.94895924885529
H        11.57938187771397    2.82291152205110    9.23321012152607
C         9.57028825180369    0.13408431960382    4.49841048354407
C         9.82822192529973   -0.64579667437665    9.80323945942156
H         9.47828575850585   -1.22620375999914   10.64318674389053
C         9.03204029357277    0.35115906616810    9.25313992625249
H         8.05270821034092    0.56390657715687    9.65173836369945
C        10.16136034907966   -2.17611892868909    3.82699388045410
H        10.46672484901939   -3.14720466891340    4.20553748383069
H        10.96450773344221   -1.78256761665438    3.20920752399211
H         9.27739820389908   -2.31448044887854    3.20798260255872
C         9.87621273163620   -1.23528135670908    5.00187414677767
H        10.78105204064509   -1.15660859014215    5.61149817311196
C        13.51639832264971    3.52370689347521    8.64950628320792
H        13.62239450863541    2.78231398762990    7.85958880593615
H        14.01290671778975    3.14956267070180    9.54022039673669
H        14.00607628908243    4.44462793988408    8.34022992054543
C         8.73026278112949   -1.76851151700692    5.86597995366699
H         7.82962010129874   -1.91848087800596    5.27435791446702
H         8.50362448201131   -1.07978406194596    6.67688557954170
H         9.01418870371246   -2.72394338378442    6.29776716047012
C        15.86042163256001    0.85559652129094    3.36267211320540
H        16.40978622208230    1.52571652022440    2.70332120814913
H        15.16727548537317    0.26525964758751    2.76829042688827
H        16.57611748589929    0.17843456366173    3.81929100445953
C        11.86846166815236    4.76800078627412   10.10062683704707
H        12.33135172525502    4.35999162661954   10.99478311517805
H        10.81821798084809    4.94783060527867   10.32195338924535
H        12.35939590101169    5.71318832526705    9.87707151625922
C        16.07886170798761    2.55170499740368    5.21704525025851
H        16.86504467763597    1.96109246100377    5.67743303769184
H        15.54838704592680    3.08631667018814    6.00068045335580
H        16.53846426108531    3.27590801274490    4.54650541317838

