105
CSD_code = PANSUU | q = 0 | S = 0 | Stoichiometry = C42H56N2NiO4 | MND = 4
Ni        2.78425819213302    3.01278570060446    5.37919292865290
O         2.87928125519021    3.77986909116451    3.71463840804460
C         2.34629533881501    4.84018460566831    3.23504496026332
C         2.75968493179253    5.26513814989312    1.93004937916918
H         3.46517544309448    4.63727922368122    1.40828481816494
C         2.28999070922385    6.40584129674288    1.37471217920456
H         2.62191502091801    6.71015936414621    0.39205821216856
C         1.36707361345735    7.24002439170802    2.06025475590496
C         0.93453306440356    8.44373248302812    1.48854541682778
H         1.30064427278856    8.74193816231662    0.51855281180895
C         0.04784402650395    9.26028333227358    2.15289476833683
O        -0.35183305462018   10.42371959311853    1.56419359955914
H        -0.96491838384588   10.88743899792171    2.14663945971226
C        -0.41239391368421    8.88001838707446    3.41950913965130
H        -1.09570104884325    9.52930976458765    3.95257275325331
C         0.00083140732662    7.70314398598253    3.99090942122201
H        -0.35951633458151    7.46457828276561    4.97952941485777
C         0.88896278656899    6.83621993879840    3.33193960637832
C         1.34803588532051    5.59865235347509    3.89572012244569
C         0.74153753385567    5.03399935976908    5.04423190727234
H        -0.19652582688927    5.49338915950766    5.35914872707913
N         1.12930446143425    3.98856391228930    5.70317984316440
C         0.19716312220900    3.45746666865299    6.68094920729986
H        -0.56943728652987    4.20357438300950    6.92912300092917
H         0.74891356949385    3.19356638113243    7.58357895951374
C        -0.46876935447372    2.20364926411394    6.09968425915463
H         0.32512825832477    1.51143137357518    5.79736238536942
H        -1.02223574003280    2.49023550885932    5.20085370364385
C        -1.41442949424660    1.50776409572038    7.07619648545417
H        -2.17064303533617    2.21687116130289    7.42245984113230
H        -1.93382721440726    0.70965021423826    6.54021408284139
C        -0.69053345159499    0.90383392825151    8.27674836979350
H         0.14579202725148    0.29750462972678    7.92226217685869
H        -0.28370414397861    1.70318889550432    8.89767485461276
C        -1.60738921536371    0.03809362431198    9.13648611524916
H        -2.44460766056496    0.64056140411329    9.49777999652866
H        -2.02110052594008   -0.76975797926688    8.52835271409598
C        -0.86104933105605   -0.55933796602438   10.32718269419762
H        -0.44735433262041    0.24862734274388   10.93560431829977
H        -0.02312375499204   -1.15724331346089    9.96083529783336
C        -1.76486699776042   -1.42991037327162   11.19629542701910
H        -2.60494574391467   -0.83080736151651   11.55651660871354
H        -2.17564816191220   -2.24116880855732   10.59051076880759
C        -1.01904314520316   -2.02029130394447   12.39036459746473
H        -0.60348458042037   -1.20917020141135   12.99334690970718
H        -0.18351039197173   -2.62536786093912   12.03036497450672
C        -1.92545550598124   -2.88289589741563   13.26517541712687
H        -2.76244879134450   -2.27827802954179   13.62248266391597
H        -2.33898777195655   -3.69560914022599   12.66350508132511
C        -1.17738312258074   -3.46601645299396   14.45773324656264
H        -0.35018058339739   -4.08769329229812   14.12193487475366
H        -1.84087352547319   -4.07669718730888   15.06580511259329
H        -0.77519939394383   -2.67061201861230   15.08166988346214
O         2.68923612281492    2.24572445067982    7.04375360234997
C         3.22223629899584    1.18542984302689    7.52337635628184
C         2.80884361488909    0.76050365149256    8.82837977573398
H         2.10333702498874    1.38836380911703    9.35012134318381
C         3.27855354150585   -0.38017635497056    9.38375021389465
H         2.94662637512727   -0.68447604286669   10.36640881264441
C         4.20149247512645   -1.21435927307122    8.69823669673524
C         4.63405291540834   -2.41804135142494    9.26998569713021
H         4.26794028711160   -2.71622456009249   10.23998470094151
C         5.52076441437192   -3.23459402670621    8.60566873187306
O         5.92046104625237   -4.39800393550070    9.19440845820636
H         6.53356175294288   -4.86172780024094    8.61198233024534
C         5.98100488405929   -2.85435687669242    7.33904711703076
H         6.66433113734122   -3.50364909259865    6.80600906623616
C         5.56775895852395   -1.67750862307319    6.76760761621075
H         5.92811216155341   -1.43896670123250    5.77898397330182
C         4.67960357600486   -0.81058264040926    7.42654277139789
C         4.22050713808117    0.42695907137285    6.86272212148081
C         4.82698066796223    0.99157706525660    5.71418010458626
H         5.76503805707748    0.53217840342765    5.39925927739706
N         4.43919920310027    2.03698781397114    5.05519963226803
C         5.37131748063140    2.56803035916853    4.07737734744819
H         6.13788453093815    1.82189149167904    3.82919401066526
H         4.81953758319531    2.83191966359062    3.17476263037766
C         6.03731714163064    3.82184431131417    4.65857257009697
H         5.24345917463937    4.51411481006989    4.96087382459736
H         6.59078510923729    3.53527425833735    5.55740735919667
C         6.98299617371852    4.51763477477390    3.68201041845017
H         7.73916909248988    3.80847261378960    3.33577152125045
H         7.50244189057472    5.31575091620454    4.21794322866697
C         6.25911100131619    5.12153732349769    2.48143830689548
H         5.42283764566425    5.72794736980557    2.83590848240477
H         5.85221020851325    4.32216936561916    1.86057473529232
C         7.17600240131263    5.98715841122542    1.62161822580100
H         8.01317361620139    5.38461121171382    1.26034814193445
H         7.58977951112931    6.79502731011189    2.22968408885392
C         6.42967213161187    6.58455045039260    0.43089559137675
H         6.01590402451623    5.77656663170579   -0.17745261917125
H         5.59179868023813    7.18254210432215    0.79722018035504
C         7.33352390574879    7.45499459612788   -0.43831010416047
H         8.17354593279032    6.85580373367698   -0.79851612093408
H         7.74438567230484    8.26626771006271    0.16740122052758
C         6.58770095233888    8.04534031556375   -1.63239733637413
H         6.17204948631005    7.23420517747360   -2.23529752051003
H         5.75223320057682    8.65051512107090   -1.27241224663983
C         7.49414886576540    8.90779891943060   -2.50731502236744
H         8.33106921621611    8.30307940975676   -2.86462107065670
H         7.90778592899396    9.72051796205112   -1.90572418719315
C         6.74606889243902    9.49090113978148   -3.69987690434423
H         5.91894535589596   10.11268451127153   -3.36408126191551
H         7.40958591864235   10.10147098262088   -4.30803068654386
H         6.34377352051515    8.69548898934868   -4.32373186440111

