73
CSD_code = PANVOS | q = 1 | S = 0 | Stoichiometry = C32H32AgN4O4(1+) | MND = 2
Ag       -2.49844003193799   14.93249795021228    8.05295942222665
O        -2.12319004867742    9.45811798205917   10.54909903424134
O        -1.61677647912375   12.01061757140313    7.88761170186842
O        -3.72232916219895   12.40861722184137    8.43099859727701
O        -0.03145217902518    9.98240433059576   10.06101393087186
N        -3.87411037855215   17.15511212570513    6.01526976994194
N        -2.96391973297510   15.60141267102849    4.86027331641714
N        -1.85496477109564   14.44778078464944   11.21835584256256
N        -0.32471031104011   15.65995784494645   10.34153215280645
C        -3.01896369002027   13.12371741863427    6.30663845439760
H        -4.03439452745842   13.38841668668210    6.05038022776645
C        -3.36902104838861    9.82174230377507   10.93172960593242
C         0.65087265045287   11.61489829532548    7.42965492032774
H         0.68224064928535   11.00708811790543    8.32194412904201
C        -2.66068006742377   12.13420811135153   11.13576249766786
C        -0.65325470589313   12.97770010748925    5.88697803262766
C        -1.95696152330681   13.48526892612332    5.54403296833238
C        -2.84576960977704   12.48648250214745    7.59229125109131
C        -2.99440725226907   13.58755420816937   11.38326596677782
H        -3.76394789652249   13.88256348137303   10.66007793873331
H        -3.39092992573241   13.70966757540076   12.39579381775730
C        -1.50326313736663   15.05990004015732   10.06983371601910
C        -7.39186831119688   10.74296839842753   12.08780994483799
H        -7.66539528834304   10.16517259258543   12.96908003338292
H        -8.07763185863164   10.46823414390227   11.28799980004519
H        -7.52108159961200   11.79879369753215   12.30909487520315
C        -0.91220450141253   14.65132698066085   12.18558690032193
H        -0.99910249012691   14.24540660152188   13.17210406526051
C        -5.02702532014104   11.43210977544983   11.61228837900220
H        -5.30772273303304   12.44732471903561   11.84544926734431
C        -3.70725998372473   11.14948625851047   11.23883057664156
C        -3.10458677925233   16.05598036074211    6.12752441518878
C         0.50892395383306   13.16197267041460    5.12294998496424
H         0.46449940168251   13.73964697790908    4.21275737652965
C        -1.11578452102907   10.35656535369133   10.44635626903879
C         0.05550476914390   15.42056765282613   11.63078226969614
H         0.96055420850536   15.80909307678332   12.04973956791431
C        -4.20176326158492   17.39492489898124    4.71162849888934
H        -4.81479744829361   18.21803999217965    4.40842242648968
C        -4.33092622695570    8.81508959173327   11.00423390983382
H        -4.04025523069699    7.80560688939433   10.76175810519199
C        -1.42111862966297   11.73357263756198   10.78736641979386
H        -0.58655843608210   12.41045817469545   10.69010019388701
C        -5.61683490781155    9.12511308456670   11.37829839407813
H        -6.36018113197770    8.34438738485760   11.43424152578463
C        -0.55882294037333   12.19378103422284    7.05264042197551
C        -5.98254586063898   10.44022458572304   11.68663448308850
C         1.71205381423280   12.59453810541153    5.48892522317996
C         1.76718540728693   11.81571301997726    6.65110639789305
H         2.70232342131582   11.36023737130722    6.93739201561451
C         0.46495650637578   16.38953012074155    9.38094577346071
H         1.07789580334494   17.11821938255937    9.91557269537942
H        -0.22133202625438   16.91697834484185    8.70736997195233
C        -3.62683211222516   16.41146884757555    3.97982560163696
H        -3.64193416397010   16.22895043321083    2.92522149628943
C        -4.26441409568756   18.00445574339536    7.11332270239562
H        -4.12486554789440   17.43239144586397    8.04000330486961
H        -5.32223983143366   18.25733401444318    7.00551386951913
C        -2.18886087578903   14.45559137819409    4.41636522449619
H        -1.23857113521725   14.81460861786272    4.01111543537807
H        -2.73928708385153   13.96171672832482    3.60723499173498
C         1.35082922363535   15.44309440085689    8.57358631422066
H         2.01830379668201   14.88787537107269    9.22790925078122
H         1.94939602677908   16.00835459146557    7.86615584570084
H         0.73383057142308   14.73381793912482    8.02065255591012
C         2.94400800608922   12.78427264984706    4.66399091652225
H         3.73978580262983   13.21689046246348    5.26777127483720
H         2.75681765671030   13.43341952665842    3.81325740756942
H         3.29797826053521   11.82274925613444    4.29604153536253
C        -3.42140161675549   19.27516534532732    7.15270822603877
H        -2.36949302236406   19.02365901178862    7.26563658802582
H        -3.72462134711664   19.89141221589631    7.99323398151639
H        -3.54805313195393   19.85128188434107    6.23956600065702

