51
CSD_code = PANYEI | q = 0 | S = 0 | Stoichiometry = C17H28FeOP2S2 | MND = 6
Fe        0.54619403386372    3.13543689883835    1.00637842501434
S         1.61051540117528    5.09768254474655    0.47240707278400
S        -1.36653937634814    3.72378168259930   -0.06208101322900
P         2.53715742089026    2.31936970141233    0.88416936123109
P         0.26648177820662    3.71604610169074    3.07226321380746
O        -0.60535717329679    0.55025850982592    1.58036569364842
C        -0.14580638989241    1.58259448914942    1.35389205461701
C         0.07848870300401    3.06707258670507   -0.94030697565932
C         0.79427185840955    3.97982493238329   -1.79849740774150
C         1.49908741818093    5.00915852996797   -1.26297245298262
C         2.20928324198977    6.01468084423141   -2.04817328986487
C         3.34568219905908    6.64111798704132   -1.53926458675775
C         4.02835460068594    7.58103965118194   -2.28571341662224
C         3.58755934380515    7.91637971625081   -3.55504339819860
C         2.45436714808704    7.30775146246721   -4.06912443887302
C         1.76911419999001    6.36770198048581   -3.32432075544978
C        -1.46646389091102    5.48581235037727   -0.51549057624709
C        -1.48962459326934    4.06515245789548    3.46206680623243
C         0.64874492036681    2.50416658620222    4.39385104840256
C         1.06010581956545    5.21873648202790    3.75522620094698
C         3.36719812304485    2.26650687014782   -0.74764788298646
C         2.70203541879464    0.55588362176119    1.35649262292806
C         3.88147931094922    3.04760484579681    1.89973116786924
H        -0.23811137902442    2.14483512525291   -1.42609638287569
H         0.82239394246200    3.78771794313002   -2.86415865161917
H         3.68543261978493    6.38066819711077   -0.54769655908785
H         4.90909357004286    8.05482382495981   -1.87631125240067
H         4.12049601422027    8.65217022754790   -4.13944326211634
H         2.09942317066101    7.57209514261329   -5.05514253813303
H         0.87614030399514    5.91287577700641   -3.72855994758078
H        -0.78382151371909    6.07593240346535    0.09080690719726
H        -2.49469871170083    5.78296307375600   -0.33354106841670
H        -1.21645145858244    5.59495104819059   -1.56717501803590
H        -1.61519127639126    4.29108098460240    4.52118136387667
H        -2.08462209238706    3.19335604481547    3.19181987084387
H        -1.82338651277495    4.91128755944137    2.86196454560316
H         0.09168495709052    1.58907916105683    4.19947281861623
H         0.37159281345015    2.90307010286594    5.36967975889675
H         1.71334142668741    2.27386650011702    4.38241454540508
H         0.75644657003300    5.37577851691964    4.79038304540710
H         2.14199297139976    5.11306765676296    3.69399652648506
H         0.76877144082732    6.07268474148549    3.14564567528105
H         2.73073595269880    1.72794766662016   -1.44840090485907
H         3.51882140168770    3.27957753442825   -1.11675856502131
H         4.32864624061329    1.76045121868685   -0.65428228477248
H         3.73836107253943    0.22668282939272    1.28251969306395
H         2.07940484622702   -0.03967473178132    0.69129219312065
H         2.34357104960456    0.42216922143364    2.37584612412420
H         3.60348289916611    2.99536871213304    2.95204070728737
H         4.81081145504881    2.50159773051765    1.73631683385724
H         4.01070870995271    4.09191495427278    1.62117835295973

