54
CSD_code = PAPDOC | q = 0 | S = 0 | Stoichiometry = C23H23IN2O4Ru | MND = 9
C         2.08138325137422   12.16330293039572    5.49831023494450
C         0.53792965516253   14.25827116537049    2.18369194800071
H         0.12125266918854   14.72542244757941    1.30585436139570
C         0.68345812111674   14.96339244804480    3.37218838780652
H         0.38852650785632   15.99861516459200    3.43838364158960
C         1.19473796035867   14.29796460297452    4.47142140483888
H         1.31865388929796   14.76349408520461    5.43654698914761
C         1.55743963717824   12.96561987232116    4.34176768183989
C         0.91893366948008   12.93142249966225    2.13416832127311
H         0.77635390427576   12.34585456852958    1.23285797380578
C         2.66576195130769    9.90058488314182    5.99990824265378
C         3.74354365020529   10.14971947866850    6.84327215193493
H         4.17993272699076   11.13332959719645    6.90215061013233
C         4.27188766450363    9.14140055512646    7.64394266654231
C         3.69894235793506    7.85062261625858    7.60381486666524
C         2.60013046531498    7.61921441193221    6.76413617718312
H         2.15487240409591    6.63655172871511    6.75867929621286
C         2.09485667350448    8.61384003116954    5.97082374230180
H         1.23747791303347    8.42757658936028    5.34047079495884
C         4.24325465658069    6.79509847346086    8.44308327551534
C         3.56132064717727    8.64897551330478    3.13433350536003
H         3.84370925353204    7.91296391409592    3.87927246341949
C         2.59769848909723    8.33287101450032    2.17241545474282
C         1.92236868523355    6.99570220426157    2.14208757780616
H         2.27158858334252    6.42620614660852    1.27957942655648
H         0.84204406453370    7.10987376599791    2.05163299891417
H         2.13716374488549    6.43043097181290    3.04613264008924
C         2.32467978728634    9.28955469605512    1.14369122836674
H         1.63151401262740    9.02341243708978    0.35127178822636
C         3.01416212351881   10.50232605200518    1.09757321737497
H         2.87127781210036   11.17295763048974    0.25508417911829
C         3.96171661436262   10.84869627934262    2.10580754776312
C         4.75274946188340   12.12893665415668    1.97327109054578
H         4.13435063955766   12.85753534927167    1.43154345654992
C         6.00298320489637   11.84242321974733    1.13199007044700
H         6.63336208385217   11.10780627108333    1.62933725733142
H         6.57760644053944   12.75512735031327    0.99656256771069
H         5.73101166889400   11.45590280527301    0.15151458225197
C         5.14176669883046   12.74130891437471    3.31938033913314
H         4.28175770891619   12.81081508579481    3.98467879957505
H         5.53291891602441   13.74424041516309    3.16609778646822
H         5.91381805578813   12.15454305073684    3.81158677874786
C         4.21280028670345    9.91026083375363    3.12334327741978
H         4.97701306539659   10.10391182665689    3.86655477218014
N         1.43906650430462   12.29754279706442    3.18555063964644
N         2.16439164674393   10.86901557373587    5.14785080846531
O         2.33417947073317   12.67595449007637    6.57776650506421
O         5.32924873602907    9.43208085504535    8.40844502096733
H         5.56898263182767    8.63037199045816    8.92673270700341
O         5.19499167550548    6.93176154539018    9.19938517011939
O         3.62511165186297    5.61028505494556    8.33310399871592
H         4.03936874871742    4.97643669747504    8.93873298765091
Ru        2.02592127583880   10.39878855011979    3.15230177866359
I        -0.56937411930080    9.77228189409470    3.29761480885900

