47
CSD_code = PAPGOD | q = 1 | S = 0 | Stoichiometry = C22H18Cl2CuN4(1+) | MND = 4
Cu        6.43033934357585    2.22068684657529    1.18225896998893
Cl        8.04123086646878    4.91744834021540    2.10163483858230
N         7.82036712685311    3.34012191135615    0.05823791565338
C         8.23368751850731    4.53820949479808    0.43422976327234
C         8.80536401153092    5.45321051690768   -0.43540786729872
H         9.13339824071966    6.41650957309858   -0.08306010433160
C         8.93455479278806    5.07678902607044   -1.76292505968519
H         9.36871029174963    5.75798221183141   -2.47796674354696
C         8.50714094398159    3.81838432606397   -2.16100972489040
H         8.60630005716651    3.50301879276213   -3.18699882837154
C         7.95720552796572    2.96706482874486   -1.21348554300387
C         7.45766147243188    1.58952104200258   -1.55161341225508
H         7.84701834338362    1.27086023175203   -2.51701466203702
H         7.78800978745709    0.90173937338988   -0.76876358457263
C         5.95184400564465    1.59326693986823   -1.56520070523820
N         5.34243519639636    1.59349315789887   -0.37715880477920
C         5.23685542994761    1.61880479937784   -2.75453000868758
H         5.75720748620402    1.62256717514804   -3.69923196227452
C         3.85263487349799    1.63043742783512   -2.71065431705429
H         3.27524883256677    1.64618958378091   -3.62180203623545
C         3.22624648232685    1.61671499451737   -1.47263816952546
H         2.15164150571686    1.61671636510363   -1.39197271714046
C         4.01096479698292    1.60146153384863   -0.33565217083165
H         3.56502352937074    1.59056947120431    0.64873334155831
C         4.74154341507267    4.64879772202706    1.83876545020642
Cl        4.94694789353898    4.95264572586258    0.15751224497506
N         5.09561380193997    3.44697739521749    2.26059018939223
C         4.21958927119011    5.62451983536994    2.67291117746960
H         3.93902932580606    6.58864871804374    2.28375458067492
C         4.07654935534923    5.30707063637847    4.01435850104990
H         3.68010813433104    6.03670994883031    4.70302260446275
C         4.44160538808743    4.04518717985378    4.46059314123732
H         4.33066173712634    3.77545068029437    5.49832116633294
C         4.94460405491337    3.13103301426417    3.54611420736616
C         5.37617725476601    1.74450339949337    3.93700845857581
H         4.97218024733195    1.48208292489537    4.91325557567215
H         5.01243696229782    1.04443941623496    3.18030160026461
C         6.88040814089295    1.67579568672030    3.95258672750651
N         7.48868373629588    1.60408353778087    2.76615521408515
C         7.59623449387723    1.70935661420690    5.14121389731266
H         7.07701047968556    1.77163653851794    6.08448913884047
C         8.97940522715049    1.65311232221502    5.09879402826955
H         9.55722621050748    1.67379057889315    6.00956702743748
C         9.60397314814836    1.56570612409915    3.86287209238041
H        10.67733600317370    1.51189728088328    3.78366238057814
C         8.81897854423649    1.54715731393320    2.72611318357678
H         9.26350671104609    1.47982944182977    1.74332900503701

