87
CSD_code = PAPKAT | q = 0 | S = 0 | Stoichiometry = C28H46N8O4Zn | MND = 6
Zn        3.13559878722936    2.20130306891767    6.90994383873878
O         2.78186633995478    0.41892830727540    7.77158100516301
C         1.60818944164076    0.34215082401106    8.24331635936160
O         2.77412888064236    1.68695782118662    5.02320157254127
C        -1.05678611418577    0.37431309110333    9.24842331092714
C         3.83768587122248    1.52038968479288    4.35554376990199
O        -0.75236883031183   -1.88017915981457    9.82780122797305
C        -0.54436903649824    1.54180674355525    8.75629924482554
H        -1.14921361208930    2.43683565905084    8.73973579735524
N         5.03306590643290    1.95118551235431    6.32910363621449
C         5.14839861640007    1.60953014823621    5.08386383429440
N         1.38355033248671    2.63568707779351    7.78948828010187
C         0.77285211844936    1.59021399283458    8.25208469280208
C        -3.30167621426579    1.16185659124972    9.94611815840970
H        -4.26690905391857    0.65428792332230    9.98194987277702
H        -3.31072465826681    1.87297732716485    9.11532619399824
C         0.75838018122077    3.92030616530349    7.68830399406430
H         0.34656604019940    4.23911207104067    8.65606045009690
H        -0.07115120956096    3.88187495613441    6.97114922091730
N         4.51649163747122    2.76443009336788    8.95666272181982
C         5.03730499130949    1.03511879838245    2.26927928405839
C         1.07421915610322   -0.81330112385731    8.78091591621245
H         1.67714649213412   -1.70862366500920    8.78920942401684
N        -2.28857720609684    0.17378486910238    9.71996356069032
H        -2.40092703604139   -0.77316838193894   10.08568594453824
N         2.59622694200168    4.43936771590892    6.12147800105629
C        -0.22645258266496   -0.88820900730824    9.30833127143477
O         5.11832047316048    0.83674013896892    1.05213057485898
C         1.80459794586636    4.94217520226065    7.23646683524856
H         1.30353753818838    5.89058179876309    6.97949952982148
H         2.48560347980733    5.12449603330042    8.06967744726927
C         6.12769791104791    1.96897733616727    7.25185850171511
H         6.67734594763721    2.91603844671390    7.16329071464802
H         6.83294978506900    1.15101895972107    7.05909215903568
C         6.32923180342136    1.02548502020607    3.05767572298782
C         6.34502708071411    1.33015980866713    4.39137022844408
H         7.28224622784200    1.36718807701303    4.92887751071155
N         7.36869829568973    0.68641319915601    2.29653067182741
H         7.11702037296970    0.61826162020029    1.30941578187170
C         5.56409574392377    1.79226184454986    8.66277373298234
H         5.10878784960362    0.80255583008753    8.70648196121923
H         6.38169883903705    1.84833923019465    9.40030204470277
C         3.85646266608294    1.26961459001274    2.99707245009554
H         2.91816693646758    1.22801860062823    2.46480655005415
C         3.74678616045628    5.29522268145485    5.88388518788466
H         4.35989338117360    4.85713832264992    5.09833076598951
H         4.34409925367230    5.37513510451149    6.78814758622168
H         3.44500550599496    6.30607752765040    5.57153402091140
C         1.79121760043653    4.38783664282343    4.90727511899569
H         1.00101988889923    3.65228122170506    5.01537018370629
H         2.41519072296820    4.07540267302013    4.07430019916981
H         1.35432948540529    5.37103017479944    4.67864344786363
C        -3.04707427094046    1.94414564447741   11.24753470471178
H        -3.28348757316283    1.30528568307750   12.11701728990788
H        -1.98054585932249    2.18141987688294   11.28582581653037
C         8.75665892631974    0.68850416789471    2.64953315532633
H         8.86228044692400    0.45738983172888    3.71209557776686
H         9.25687374088408   -0.09375496171822    2.07449065821256
C         3.76974948832176    2.35223566935531   10.13630199561890
H         2.95660450157173    3.05440881596823   10.31311004937679
H         4.40925242120586    2.32119900250805   11.03056995419133
H         3.34422311262072    1.36660355527033    9.97508026438010
N        -3.78102423321311    3.19609043599231   11.27256172711319
C         5.09410144841616    4.07525275690660    9.20600108032679
H         4.30171628130381    4.78986189063159    9.42360108690467
H         5.64339014103017    4.41845084640543    8.33308479904565
H         5.78304248852124    4.05654020319921   10.06471831262048
C         9.40400751258858    2.05249017704627    2.35422505584362
H        10.43256746965603    2.06252542949661    2.75372104519057
H         8.82734572311952    2.81668146178442    2.88053035890154
N         9.36455617623762    2.33719559965864    0.93178205333226
C         9.25407162163539    3.75047786827298    0.64255794989882
H        10.12438730991292    4.33017482713937    0.98961597763339
H         8.35604933317341    4.14514261700856    1.11526714278453
H         9.15990471424212    3.88166190067010   -0.43415262178164
C        10.47304706102914    1.73923921952983    0.21969310762734
H        10.50465542416595    0.66950815907393    0.41586886538092
H        11.44401914942711    2.17559600531004    0.50622151227704
H        10.32839027383050    1.88628314060614   -0.84917344447532
C        -3.26916272014624    4.08598188161006   12.29532564324595
H        -3.37896484587488    3.67729205374679   13.31171703140565
H        -3.80673832075689    5.03142333656052   12.24237926115664
H        -2.21311114092615    4.27735491148425   12.11031622192928
C        -5.20662791966491    2.99111209384639   11.43297624807295
H        -5.59099339087477    2.41858589994632   10.59211874552101
H        -5.70364636033315    3.95961628831629   11.44219066416477
H        -5.45456520747379    2.46133652083806   12.36616319747587

