51
CSD_code = PAPMAV | q = 0 | S = 0 | Stoichiometry = C15H27N3O5Os | MND = 4
N         2.34349074210654   -1.76640746982049   -0.52554210118193
C         1.84962176317574   -3.13831709332134   -0.44233746928001
C         2.73967404598546   -4.04138033251310   -1.30470499992455
H         2.72662043241188   -3.70918211343425   -2.34236899930306
H         2.37493634347311   -5.06528323652131   -1.26732489807802
H         3.76455438530518   -4.02541480610357   -0.93525540517140
C         1.88542924911811   -3.65823804734854    1.00399970569284
H         1.17978965394391   -3.12305176473698    1.63580819742598
H         2.88682359264467   -3.54063921387282    1.41031157887430
H         1.62196610316602   -4.71290312419780    1.02147563715288
C         0.41341063334379   -3.19664150327664   -0.99214758963266
H        -0.27481937483838   -2.63191341381757   -0.36873387249665
H         0.07100570989295   -4.22731996356180   -1.02969206343225
H         0.39337348769844   -2.78184037928597   -1.99642911854997
Os        3.84066427214207   -1.18524695906071   -1.52795072687266
O         3.38370684414282   -1.17572980239694   -3.09865238721140
O         5.18741775142814   -1.68972618872755   -0.77137332867437
N         3.26009598047177    0.51811311574450   -0.90313753387401
C         4.10266900372278    1.70832194902187   -0.86907388872077
C         5.30866125003840    1.48869156634376   -1.79247007561768
H         5.94611767110152    0.69411028892166   -1.40672181381875
H         5.89862373634427    2.40035118858797   -1.85422115932975
H         4.97172301196157    1.22545654568692   -2.79481072052944
C         4.61682376129304    1.94532458403877    0.56313035943596
H         5.03830235698122    1.01895214978706    0.94692763483253
H         3.81117896591497    2.26353285801026    1.22219526344093
H         5.38349744594863    2.71558316429006    0.56542494336174
C         3.34530925005110    2.94883753489313   -1.36949508895896
H         2.98589555631043    2.77898283085288   -2.38055019594083
H         4.01832859284396    3.80280491531551   -1.37877371831444
H         2.50233122073269    3.19168343862653   -0.72864984894227
C         1.95304234938273    0.56899831331681   -0.27302307220167
H         1.90331062474144    1.36798922188589    0.47580988158057
C         0.83078914142746    0.75549228830998   -1.30282388295119
H         0.90763234109342    1.72473974901925   -1.78389130237639
H        -0.13620790219967    0.67994321943150   -0.81243200551517
H         0.92154148564921   -0.01894506212523   -2.06210594012971
C         1.77612750874779   -0.81226784750592    0.40225617349635
H         0.72395031946297   -1.01304546577729    0.60759323206216
C         2.58966161337959   -0.76991796217351    1.68179058524582
O         3.76872329222972   -1.01689890157120    1.72434011068528
N         1.94764023047910   -0.34860436010998    2.84186668028364
C         0.61191292229250   -0.04531023854173    3.06581749804685
O        -0.27498864941312   -0.06117068716299    2.26447391319842
O         0.44120544790576    0.28148005310241    4.35009458691683
C         1.65949490474313    0.22104693722836    5.07871146904824
H         1.52951923355115   -0.48735555780873    5.90093991648926
H         1.85895455778497    1.21382618156703    5.49103517126824
C         2.72149595557749   -0.22716625996981    4.06848744027497
H         3.52231885321042    0.50363885917250    3.93213269199062
H         3.17425233109680   -1.18968319840839    4.31927053622862

