64
CSD_code = PAPQAY | q = 0 | S = 0 | Stoichiometry = C34H25AuNO2P | MND = 2
Au        1.56815828661740    0.76259420163316    8.54591697881800
C         2.91583846239620    0.44591305929278    7.17206301282010
N        12.17112801711904   -2.31144760279038   -2.14269850731524
O        13.19078440218024   -1.65694088588174   -2.02213233756246
P         0.04187004992012    1.14780163236566   10.16730646772577
C         3.78044696930692    0.26143471243105    6.34309092525404
O        11.99742006493754   -3.15100934418307   -3.00730666815766
C         4.79359722479880    0.04999402267959    5.38468494940422
C         5.99097363817843    0.77238312502322    5.44528001748593
C         6.98126226452665    0.55547037986231    4.51754856893943
C         6.82817695415431   -0.38756573114707    3.48994190234172
C         5.62271354104492   -1.10148892845465    3.43392642785331
C         4.62838342243871   -0.88843619266910    4.35873389600012
C         9.04979052366455   -1.62576804006247    0.61219567279378
C        10.25252112900399   -0.90522598533619    0.68798305904181
C        11.27039681737501   -1.12620729242244   -0.20843318029948
C        11.11318156758135   -2.07975105991590   -1.21275366107579
C         9.92978250528663   -2.80838833656295   -1.31314497831987
C         8.91845952495557   -2.57958696280902   -0.41125596759862
C         7.91212862573209   -0.57434607994416    2.55916794849667
C         7.95214955097607   -1.44114422191084    1.52806213947733
C        -1.64630461265301    1.52471752493323    9.61044603336936
C        -2.13593866157490    0.74406805908914    8.56666382776180
C        -3.41684519311656    0.94812397539130    8.09024840638192
C        -4.21059320086719    1.93799977300773    8.64810067814768
C        -3.72253426584314    2.72194900678366    9.68089040429901
C        -2.44266556036415    2.52012815901266   10.16591937989690
C        -0.23566488260754   -0.20107716647335   11.35210849162601
C        -1.39242367659750   -0.28772399290490   12.12149808345299
C        -1.54011051632764   -1.32801775538078   13.01961793080934
C        -0.54254417167225   -2.28178539587584   13.15320182261781
C         0.60709393841460   -2.19985508173972   12.38483966477336
C         0.76065755177412   -1.16293565281299   11.48228317178594
C         0.46284227634007    2.56441833821629   11.21892588861440
C         0.69369444259855    2.47347877201631   12.58582932694663
C         1.08062050655496    3.60083002777887   13.29013640310297
C         1.24476282383701    4.81109491370686   12.63760406540054
C         1.02918661115269    4.90058768531330   11.27037083031419
C         0.64798917922806    3.77948668552909   10.56056596933117
H         6.12592549236409    1.50083581284787    6.23239815108633
H         7.90212419570794    1.12010250342152    4.57857740179699
H         5.46611724796654   -1.83264774554331    2.65508101099603
H         3.70433507918198   -1.44691248518735    4.30510141913507
H        10.38929575932137   -0.16499636441923    1.45979878767824
H        12.19684489551255   -0.57504581968992   -0.15290105065906
H         9.83035084513122   -3.54114318058657   -2.09933908764374
H         8.00067696420581   -3.14417949571049   -0.48717092577721
H         8.76777280525968    0.06277310831576    2.74367784557370
H         7.09888373749791   -2.07878977193641    1.34021608555233
H        -1.50047742206313   -0.01868617606047    8.13321266977035
H        -3.79539817954014    0.34070206349203    7.28174131106390
H        -5.21030789570252    2.10174464836697    8.27455516545238
H        -4.34179457048407    3.49485409793397   10.11217894791030
H        -2.06203486054215    3.13446348752773   10.97065245169780
H        -2.16926584496718    0.45699088659105   12.01389036552200
H        -2.43662514095549   -1.39626873097533   13.61818231116360
H        -0.66466891728978   -3.09252166472568   13.85585117863883
H         1.38181458191472   -2.94523776780395   12.48572936139598
H         1.65100123402240   -1.09150343565516   10.86959448661326
H         0.57130865751009    1.52788127740601   13.09576934018561
H         1.25732035765826    3.53163873842187   14.35342557165063
H         1.54766923592932    5.68599503358656   13.19307087065824
H         1.16580355912772    5.84236565636078   10.75995203435348
H         0.48744205277661    3.83101297923620    9.49022725147891

