60
CSD_code = PAPQOP | q = 0 | S = 0 | Stoichiometry = C23H27BClNO4RuS2 | MND = 9
Ru        1.03889591587122    5.64244650242074    8.38659544881603
S         3.15987095633238    6.43618458038884    9.28049141943957
Cl        2.49820687444150    2.52990797641141    6.68187522876427
S         5.65562318241541    4.98975699581259    9.99207681201149
C         0.64668639613002    7.30103139543430    7.04935458270774
C         0.30524662968231    7.73534640451471    8.38162731936232
C        -0.77195884490547    6.93104806634303    8.84497962655091
C        -1.14867746938157    6.03180613688244    7.78899596606107
C        -0.28278393416868    6.26279220681130    6.68113742633019
C         1.56375199434911    8.04211666934552    6.12196543300251
H         1.03314307064248    8.88386520761625    5.67266953872147
H         1.92143083582578    7.39615029047117    5.32313088429930
H         2.42638940778157    8.43035553499857    6.66077847696199
C         0.86594562789546    8.94081149942749    9.06981952181805
H         0.34408564025209    9.83298069711242    8.71827927456936
H         1.92713575909708    9.05876586640247    8.85709352083177
H         0.73899924219628    8.87016987454810   10.14772051316039
C        -1.58071904115063    7.17800255984695   10.07946515983897
H        -0.95463430634396    7.51336696674710   10.90463049437799
H        -2.10593241165121    6.27404096917314   10.37687594330059
H        -2.32213172569532    7.95358544969482    9.87521338855934
C        -2.41384576936153    5.23779985563437    7.78137172516082
H        -3.26256098339525    5.92247564324146    7.83829671566639
H        -2.45727968332532    4.57596115979068    8.64427419787397
H        -2.49855473829931    4.64874995073128    6.87385972696447
C        -0.42968345915012    5.64215775142776    5.32746563863432
H        -0.54116976761138    4.56344430543202    5.41485481732058
H         0.43757838573607    5.84815793339853    4.70543791908439
H        -1.31483047178806    6.04506405497981    4.83183985069024
B         2.32201723615988    3.66165933975045    8.07426465401593
H         2.09608380723765    4.94143695401796    7.39775673226302
N         3.64128206447913    3.82631599884309    8.86237801382974
C         4.05656797928856    5.02164066555434    9.30604576440423
C         4.53569396964279    2.80737132606116    9.14633135864814
C         5.72144506095280    3.25979985725530    9.74247431091142
C         6.74063133812438    2.39419517546135   10.09595917668802
H         7.64397332506982    2.77289421432305   10.54598761666420
C         6.55662488080700    1.04383252639876    9.86544572701927
H         7.33628653883708    0.34711730264879   10.13088865019193
C         5.36845616592005    0.57794847761174    9.31373065048792
H         5.23092789321779   -0.48170366496068    9.16543955550537
C         4.35197173831028    1.44185924442587    8.95569574480963
H         3.43191888612972    1.06972594774766    8.53997039448377
C         1.02432428601017    3.56721951633522    8.96263586524977
C        -0.05127648074864    2.62186265674775    8.58603341637061
O        -0.55605413469431    2.89294451938177    7.37012495375304
C        -1.47527448234441    1.93269658182049    6.86889612210658
H        -1.00403755246725    0.94850791631620    6.82965449227831
H        -1.75393948341566    2.25748387514873    5.86905004875009
H        -2.35305927107808    1.87744461371058    7.51609364918529
O        -0.34837656048684    1.64371696997033    9.22510311420066
C         0.96643552043630    4.30923067659166   10.17016996747957
C        -0.27306019556743    4.25225936811011   10.95100873560274
O        -1.38472864384837    4.04722483002457   10.51069040329547
O        -0.04267621611364    4.46559872717984   12.26167865308534
C        -1.17690468871818    4.40317245176911   13.11038730375877
H        -1.82757200909461    5.26518991815938   12.94231982066622
H        -0.79682720348846    4.41008163278857   14.12911742824864
H        -1.74388742999776    3.49005667414177   12.91630688373067
H         1.85490634902494    4.42577320162833   10.79648422144401

