67
CSD_code = PAPSOR | q = 0 | S = 0 | Stoichiometry = C30H29I2NO3PRe | MND = 6
Re        6.89138089715274   17.66463142775546    3.03502048366551
I         6.13983355904135   15.28450850923660    1.89475273246785
I         7.63553515771544   19.90456067209302    4.43361439420459
N         5.02214955822478   17.59566889853561    4.25340482546394
C         4.90929328726844   16.98294072631727    5.37194176501658
H         3.94892209332972   17.00169857771618    5.89056331627588
O         1.16116951863156   19.23126541585612    3.68120040462952
O         6.24281108097296   18.55298963071503    1.79809808711734
C        10.18877247723601   16.19718442270906   -0.24938207247854
H        11.05234415442985   16.04632234751289    0.38382770457188
C        10.18398981464424   15.71823251383130   -1.54688626657728
H        11.04573776695857   15.18689340698443   -1.92306925569076
C         5.93361187501453   16.24392165987006    6.05964996956147
C         5.62936977695995   15.62530820175109    7.27674821298780
H         4.62588786177967   15.71744908098571    7.66762960114016
C         6.57905008577398   14.91056768254880    7.97023780308973
H         6.32471510631432   14.43949110570514    8.90673573751901
C         7.86956592016299   14.79657824884704    7.46140539121860
H         8.61480056600358   14.23626996759405    8.00577966341126
C         8.20802037379801   15.39197480347375    6.26803034837819
H         9.20595419561928   15.31088077547961    5.86261984344662
C         7.25391787793880   16.12201749162107    5.54540196849298
O         7.55081284467994   16.68955237130863    4.41445714799152
C         3.87462192282676   18.30186887831099    3.70439421804663
H         4.20896079445683   18.74203941247943    2.75349502017004
C         2.69856368142524   17.36500038165972    3.40474971893019
H         3.00102003119903   16.59089669699611    2.69791105196524
H         2.35064270838181   16.88594060871146    4.32218031411298
C         1.55862490464474   18.19598947491616    2.81329133862131
H         1.87545836834374   18.61593527895227    1.84598650083579
H         0.67252210380612   17.57760599678278    2.65854489324775
C         2.21197741026164   20.13224001290300    3.94046862527397
H         1.79408920518581   20.90054500306143    4.59359899506029
H         2.54534966728161   20.60255015302791    3.00237140626152
P         9.04503207337831   17.60810714631251    1.88955178078912
C        10.17429811914278   16.68303486633496    2.94721285778640
C        10.21212617806472   15.29242814295597    2.86095642423883
H         9.63187016471966   14.78132829639168    2.10383195169465
C        10.98379513205231   14.57270311005310    3.75503018543901
H        11.01621059751288   13.49529987121391    3.68763250289005
C        11.69874879837485   15.23142835507188    4.74434901529661
H        12.29722858919016   14.66525873846295    5.44301777146280
C        11.62947541777264   16.61218781805709    4.85459358290374
H        12.16416129883762   17.12140411097591    5.64266922035120
C        10.86153208968011   17.34165229816406    3.96517299784046
H        10.78457312981189   18.41663002184925    4.06255696025060
C         9.07068282293432   16.86600337432152    0.23567326777135
C         9.07977776361585   15.91582886292312   -2.35991488540385
H         9.08004297356861   15.53031167986598   -3.36836332383243
C         7.97679397010336   16.60672873810718   -1.88408423963321
H         7.11842598029819   16.76299986703876   -2.51919838410403
C         7.97202944041479   17.08818571803941   -0.58896614332115
H         7.11368851935000   17.62337790084165   -0.19875207271273
C         9.80218391700273   19.20824460702401    1.49826423730761
C        11.18211725573515   19.37105540448511    1.45214660609159
H        11.83758521135822   18.55434208408019    1.72200082630235
C        11.70983245285034   20.58988000324081    1.06628343348858
H        12.78118429069871   20.72409295953396    1.04129296519710
C        10.87020208303490   21.63442825638878    0.71508723858934
H        11.28982524531601   22.58525491472458    0.42275346997089
C         9.49530568937628   21.46272405807214    0.73651781892955
H         8.84214101749472   22.27604407162423    0.45988868203910
C         8.95881279213201   20.24915100155402    1.12208916837018
H         7.88512227106140   20.10144836512356    1.15239249405807
C         3.39957877810197   19.44172267342097    4.61308767273516
H         4.20515392393878   20.15968574601775    4.77396339473380
H         3.08128536575560   19.04860710154644    5.58078863407094

