79
CSD_code = PAPWAF | q = 0 | S = 0 | Stoichiometry = C24H46HfN2O6 | MND = 6
C         5.70702578899497    2.25595019146602   13.69870960359284
C         4.44436358243088    1.39152310906375   13.49027977933042
H         4.26090735488802    1.33058546802016   12.41895941824593
H         3.58811017048816    1.83343149837310   13.99358867007879
H         4.63123318341052    0.39552174186302   13.88388942259406
C         6.00946413288200    2.35599186039346   15.21338262430030
H         6.21682041571586    1.35949713681859   15.59380354597406
H         5.15947539604893    2.77971487616357   15.74127862747605
H         6.88533509084943    2.97904626953316   15.37748271403508
C         5.39700599771279    3.64447130258421   13.19650326001546
C         4.34195062749737    5.59547625793824   13.01890594056441
H         4.46018216876544    6.39768814798245   13.75307250837502
H         3.37067590814988    5.69212111498626   12.52792111531974
C         5.52182004701911    5.51941904983070   12.00850250361934
C         6.57346511558643    6.59876576443041   12.26008341954550
H         6.89225577180694    6.59018903554899   13.30039603688152
H         6.17208906070470    7.58047301983516   12.01851328443897
H         7.43487948467035    6.39734211611186   11.62965675202642
C         5.05839960631851    5.53715973419364   10.55553885670593
H         5.89175693915759    5.22058546285843    9.92931421696694
H         4.72286586871525    6.53172677116882   10.26795805755713
H         4.25073109342209    4.82212943928787   10.42300322304698
C         9.86606315946771    3.41596336591101   13.11312263894534
C         9.85329016696662    2.12300350514837   13.92041028119120
H         8.81781187857080    1.79482055514230   14.00368778157178
H        10.27541629797635    2.28283289373578   14.90998651616935
H        10.42397186303955    1.34468469712132   13.42032902339805
C         9.39719542869321    4.58798330426880   13.98107413224224
H         9.43418902093752    5.51605249145915   13.41431044978893
H        10.02556385342021    4.68335237815291   14.86422532454837
H         8.36859025643780    4.40965336758053   14.28270841590368
C        11.22428521859520    3.72757492010369   12.42592787714305
H        11.71178686745600    4.62034508018101   12.82355558219805
H        11.92137990380387    2.88490436093704   12.46661797820599
C         9.58287218134974    3.68052154249361   10.92418460918640
C         8.88791220738450    3.86217346876878    9.59679712958128
C         9.48478619993909    2.84640434102828    8.59868436590733
H         9.19680346828475    1.85083580141362    8.93031974374903
H        10.56765253544731    2.93687444488895    8.56118969123794
H         9.06570352660813    3.03052135212150    7.61293527839587
C         9.20487383575962    5.29706522996633    9.10893857490632
H         8.70883138812224    5.45551617097118    8.15539223304900
H        10.27658117578334    5.43261357347049    8.99347132416218
H         8.82254404994088    6.02373384627594    9.82206755845907
C         8.27150006544031   -0.41835494899723   10.68069482287924
C         9.78387780375182   -0.53482584010198   10.96690127435735
H        10.35135450952922   -0.27807751843101   10.07480746155195
H        10.04370412308445   -1.54519062916554   11.27450957664079
H        10.04990588860472    0.16147356595223   11.75654062039957
C         7.48365633092708   -0.90705851304721   11.90665467577316
H         7.78726077514249   -0.33832468435674   12.78213055320377
H         7.65191526880736   -1.96901953416363   12.07877093352172
H         6.42086374832206   -0.72641252718812   11.74656430866886
C         7.94634535552257   -1.32145311888935    9.46904311799373
H         6.87820012072022   -1.32296389239262    9.27073652413080
H         8.27122597894566   -2.34176168538291    9.65983370499448
H         8.45884767067746   -0.94848150156153    8.58485590369906
C         4.64875818030968    1.65433014560811    9.40149807985258
C         5.73664749961445    1.71675100334309    8.31743281336466
H         6.05636124785988    2.75149897114594    8.20177095347864
H         5.36558780003084    1.33467497944977    7.36733874291641
H         6.59589118294550    1.13302091036031    8.64775846069863
C         3.41867514186838    2.45957976535825    8.92955082850711
H         2.69644942590736    2.53324585643132    9.73980936682152
H         2.94752920925349    1.96979343953267    8.08070782675543
H         3.72119484317230    3.46086175140397    8.63549632978960
C         4.21696981943058    0.18854223350108    9.61910675038426
H         5.04265752005366   -0.36027353500698   10.06579722274799
H         3.93994188651594   -0.27881302958856    8.67671840042139
H         3.36626869260317    0.14557215214096   10.29666973573432
Hf        6.96358249957277    2.37530569947822   11.13373961857316
N         6.09417878922046    4.20540640595762   12.29323346830587
N         8.95711099701568    3.32203758920792   11.97044560571184
O         6.78603989466417    1.75926950266301   13.00817195660917
O         4.37833385644753    4.34496467939416   13.70939496401693
O         7.53583109662376    3.69375707151351    9.77083549046601
O        10.88527088092935    3.96824332411048   11.05904208795443
O         7.96184654546204    0.90991714300128   10.37981657888987
O         5.12329806179919    2.18832470913242   10.60294114955318

