103
CSD_code = PAQGAQ | q = 0 | S = 0 | Stoichiometry = C50H44Cl2O2P4Ru | MND = 6
Ru        2.07590669265491   12.27358838030305    6.76253383739997
P         3.09197854599599   11.15975110744050    8.43769942141440
P         2.87067702493131   13.89368494312384    9.35751431298387
P         1.76876471972024   10.52727965028597    5.37165394241786
P         0.73196884584564   12.82877759580741    3.95829253657243
Cl        3.92983753431477   12.98780992046875    5.50728768684062
Cl        0.04709800153261   12.26092867376587    7.94828962431255
O         2.37473120095311   14.14895253375953    7.98637268388645
O         1.00145008448855   13.53844321218518    5.22898118088314
C         2.58769544519048   12.15660829376918    9.92118991870914
H         1.51092757234415   12.02476443199202   10.07950451967518
H         3.14555685570650   11.91812425498614   10.82741318145816
C         1.81338395106941   11.35140906453031    3.70824309558844
H         2.83307832674477   11.71002290330585    3.52439174857577
H         1.47091472332043   10.71869638162100    2.88867287150849
C         2.51789962849237    9.47248186541938    8.80739976464653
C         3.37143873320315    8.37942445745654    8.69136532445341
H         4.41022595985098    8.53076510217017    8.43402581436156
C         2.89055636142039    7.09998198330277    8.90355607867577
H         3.56254271416619    6.25767194625259    8.82487133360495
C         1.55435635491801    6.89757120641812    9.20466463037443
H         1.18179632054751    5.89597043121336    9.36395268230209
C         0.69435708502154    7.98081297059224    9.28955309909084
H        -0.35197495181146    7.82520378272386    9.50786601292261
C         1.17018808771678    9.26339332960486    9.09170074360036
H         0.49650807495588   10.10795377667520    9.13471929273335
C         4.88345219537362   11.02744084821300    8.76665584553789
C         5.81940668351386   11.44397723981607    7.83008375500146
H         5.48458863987408   11.83897908565291    6.88220677865606
C         7.17117934899330   11.36965311236747    8.12244146055612
H         7.89363102135518   11.70287651701443    7.39226301329629
C         7.59459250331156   10.87567376726183    9.34277922736918
H         8.64908890559045   10.82240892735109    9.57175395930947
C         6.66336221892098   10.44122165164344   10.27410851105921
H         6.99192922834084   10.04398774107781   11.22402264965551
C         5.31458660631578   10.51301260152530    9.98902624259476
H         4.58963061000229   10.15328220146092   10.70810760202069
C         4.65817715485318   14.15569316623195    9.48840771785169
C         5.31619088011620   14.64796148599221    8.37001569457125
H         4.74968360602545   14.85505513940317    7.47273766099393
C         6.68538128238237   14.84203614645383    8.40684858028747
H         7.19934178960614   15.21456860843083    7.53360624975551
C         7.39177863084286   14.55077239441463    9.56112417861178
H         8.46148333951019   14.69808391634541    9.59171508453299
C         6.73278260243350   14.06893673112945   10.68209582589011
H         7.28802552976163   13.84478060558286   11.58133815613033
C         5.36602572907409   13.87064462418539   10.65001851811964
H         4.84746747302861   13.49633290043769   11.52221341942140
C         2.00609293236377   14.96124146578666   10.54045192323012
C         2.64960604840196   15.84966759605004   11.38823255841045
H         3.72877405543706   15.91414651066407   11.38564615440473
C         1.89831037799884   16.65540700523742   12.22642117384946
H         2.39357830284542   17.35170584658568   12.88752251396212
C         0.51526699170571   16.57484682170463   12.21380141991381
H        -0.06503493383029   17.20854911380488   12.86851935169140
C        -0.12594814380484   15.69173853253096   11.35889461291310
H        -1.20435861021133   15.63621904021849   11.34550348946864
C         0.61777388253403   14.88455315393533   10.51872395753574
H         0.13448102475385   14.19921675469907    9.83368263238101
C         3.08020658818942    9.26762258937602    5.28847702801937
C         2.83361781933110    7.94427336166134    5.64151985748383
H         1.83486793851108    7.63596149441319    5.91660472502598
C         3.86641193485275    7.02408970036121    5.64198300411370
H         3.66436777884430    5.99561798187770    5.90407104573717
C         5.15350592711883    7.41899279682050    5.31870915690373
H         5.95810923872793    6.69792872732430    5.32569766530682
C         5.40904416800414    8.74259672452814    4.99782241521066
H         6.41474140030656    9.05787531067001    4.76150213014518
C         4.37997778148871    9.66520502551014    4.98259853902466
H         4.58120534541316   10.70295800401964    4.75553194294373
C         0.26248159228197    9.51655257252660    5.15955579590069
C         0.17699449359286    8.64216456488489    4.07657959329705
H         1.01715093350654    8.53594277467231    3.40210294150810
C        -0.96712036438819    7.89608600417029    3.87634621953143
H        -1.02876675340836    7.22133389912206    3.03430842621573
C        -2.03385564690899    8.01015250575283    4.75516377229562
H        -2.92909188118927    7.42760900148990    4.59252970983742
C        -1.94620392240884    8.86411859152828    5.83944063945436
H        -2.77253294388089    8.95119901880023    6.52917733185307
C        -0.80091305453451    9.61494274745172    6.04627208029784
H        -0.73293437544230   10.29044884460335    6.88625227743912
C        -0.96705950237081   12.20498645043364    3.88336646731062
C        -1.41867603463563   11.39479799174178    2.84837435201457
H        -0.75330395596168   11.12775040615677    2.03870647502983
C        -2.72090259723009   10.93374026984761    2.86161878079603
H        -3.07514972440537   10.29981131580790    2.06174395386465
C        -3.57076013578529   11.27990193773281    3.90125887101126
H        -4.58610889751442   10.91121560981957    3.90748389040859
C        -3.12317772951667   12.09354825884101    4.92780786075722
H        -3.78424711283593   12.36095057627739    5.73833964133630
C        -1.82102434423756   12.56021015902011    4.91825206941882
H        -1.44887464331140   13.18430416760303    5.71880503570569
C         1.04647529477374   13.92837388274271    2.55187952624364
C         0.10774587191955   14.21547526387219    1.57290178505210
H        -0.87081861809698   13.75760036034905    1.61143343819842
C         0.43290990469385   15.09750726852656    0.55680247068428
H        -0.29486884291956   15.32740864422043   -0.20781918365865
C         1.68531955835180   15.68897420036339    0.52265475829847
H         1.93151103669998   16.37841218254418   -0.27173090307778
C         2.61928041881348   15.40635319421783    1.50739253953129
H         3.59227787171661   15.87420445165984    1.48246427634067
C         2.30142223871043   14.52681001376235    2.52519793782328
H         3.01277414442466   14.30324770052868    3.31033440135834

