53
CSD_code = PAQKUQ | q = 0 | S = 0 | Stoichiometry = C19H27ClN3OPRu | MND = 6
Ru        0.06758367483905    3.49400076166330    4.16783758612193
P         1.59246151284719    5.07069845001571    3.39696602175461
Cl        1.64621960658819    2.01232191887089    5.20013567502862
N         1.58848581940083    6.07031527773980    4.78172779370967
N         0.20532574225639    4.55312093272026    5.82304765585895
N        -1.18344701176957    2.47413174472544    5.32131820324298
O        -0.07268213578861    1.72992193074330    1.74696023034203
C        -1.87550405258985    1.38513539019872    4.98050536293695
H        -1.83897285056278    1.10043168177366    3.93577001809042
C        -2.60215856627238    0.63669136282714    5.88439313337290
H        -3.13246364555590   -0.24022952187521    5.54966051944291
C        -2.62728590614849    1.02609153509216    7.21854008796114
H        -3.17883373948667    0.45986046659775    7.95258001645953
C        -1.92242215710700    2.15603071390593    7.58165803789367
H        -1.91337433636283    2.48616012953473    8.60768724211762
C        -1.20555165633908    2.86479524796862    6.61882669705667
C        -0.41690878829009    4.05711182548653    6.90734378010999
C        -0.28239364496963    4.65764182541420    8.15736452224623
H        -0.78373283051978    4.25289460839622    9.01991565810006
C         0.51841708713127    5.78014515903256    8.27667215236550
H         0.64380926658573    6.26158132471516    9.23396931290251
C         1.16860715726365    6.27636147162745    7.15958421402209
H         1.80990849411653    7.14159068839363    7.22519860858106
C         0.99262722291113    5.63040518272482    5.93659818133781
C         1.10584993134459    6.34480791496638    2.07602597053309
C        -0.33864753954683    6.74420166336507    2.38360245724444
H        -0.42399932946220    7.15204510954410    3.38986516127672
H        -0.99823930286277    5.88534275161224    2.30279142300574
H        -0.67215193876699    7.50138805222261    1.67576277111139
C         1.93181062337777    7.63214273935442    2.04049820614345
H         1.40778186555405    8.36324378111531    1.42538635762210
H         2.91252323379062    7.49137640649464    1.60364515111906
H         2.04068585564349    8.06364077576497    3.03347770551357
C         1.14220496414039    5.62206181902902    0.73187863037475
H         0.65549745477440    6.22329070706479   -0.03456432234267
H         0.60996243114196    4.67291990216558    0.81730880903752
H         2.16166132597813    5.42385830158376    0.40890400070699
C         3.43407143644292    4.61067158112413    3.21356497913130
C         4.35192818421246    5.62121209809589    2.53041572702491
H         5.37226312954333    5.24004058614738    2.57705721008091
H         4.33922409377221    6.58515292818959    3.03407057795799
H         4.10219951427926    5.75120369581846    1.48124201007157
C         3.43013368142591    3.30267953328980    2.42038380954189
H         4.44970830372995    2.95907957182309    2.25222412567196
H         2.94250710310992    3.42815434936178    1.45462170913519
H         2.89920477839074    2.53280416009550    2.97773292231161
C         3.97434833345300    4.35268382329809    4.62224028863373
H         3.31059404177685    3.69270282740650    5.17842969253868
H         4.11167324524348    5.27959469636574    5.17919253918858
H         4.94148771540962    3.85761019381979    4.55211619766268
C        -0.03095665310214    2.41641109072482    2.67009974096498
H        -1.10864784246534    4.32815134331601    3.67414903791301
H         2.25290709749250    6.82921748854621    4.87621639976557

