84
CSD_code = PAQKIE | q = 1 | S = 0 | Stoichiometry = C32H46AuN4Se(1+) | MND = 2
Au        2.72433799934161    2.21590317689935    5.88702470286079
Se        2.90254170861426   -0.12367296000849    6.47029136306710
N         3.72977478879527   -0.38573617006432    9.15449165006126
N         1.76219051742027    0.56199371295288    8.97687171361480
N         3.07199346448069    4.81207767867456    4.35627218064536
N         2.31145053901685    5.16998362007470    6.32533497328641
C         2.79068352533106    0.03611029112800    8.31554889685612
C         3.35215808534552   -0.14806244937836   10.53825669784261
H         4.11100677881282    0.46730095609090   11.02989404363065
H         3.27980925252437   -1.09914201343562   11.07491751948714
C         1.99900414069674    0.56431024745260   10.41120240727076
H         1.19330797622012    0.03305027404397   10.92540412111651
H         2.02494091445815    1.59560816578023   10.77787792261083
C         4.97015211068348   -1.02993450048612    8.83635677733345
H         5.08581823236603   -1.07434230064088    7.75450890675267
H         4.98231468706366   -2.04600192635608    9.23546798214749
H         5.80212611050157   -0.46935868656156    9.26675704141326
C         0.52990759337331    1.05268488250872    8.43452535176835
H         0.42785594366819    0.71633054558345    7.40371563133615
H         0.49894474800861    2.14518907433337    8.46606665104594
H        -0.30312250687926    0.65661451750083    9.01694200625457
C         2.68303850967335    4.19596188276126    5.47915755465255
C         2.94540268136247    6.16806086408176    4.48838338440359
H         3.20343367839199    6.84478659942055    3.70077920065003
C         2.46405634342102    6.39626358223287    5.73491778788640
H         2.22514572583302    7.30860670644699    6.24058704007697
C         3.55578350611686    4.13289303181093    3.20137818636471
C         4.93573866087085    3.99916513623925    3.03148105333272
C         5.38706659674881    3.31992918516269    1.90834720590804
H         6.44531702284192    3.19040911506495    1.75058503707026
C         4.49490629172340    2.80311662784644    0.98781128024472
H         4.86423155982108    2.28158461536625    0.11840733377835
C         3.13414688778304    2.94500103252245    1.17792777858539
H         2.45159926266813    2.53014176699916    0.45380299397510
C         2.63633404871729    3.60997480874405    2.29091397854851
C         5.91013537579018    4.52297323248622    4.06117475916321
H         5.38965670612074    5.21536715982406    4.73190296261023
C         6.43159943719564    3.35221616786002    4.90033522412334
H         6.96849790983122    2.64539778159644    4.27324090139068
H         5.60500163700889    2.82514350115963    5.37779190952357
H         7.10789904649305    3.71469253837119    5.67095522859950
C         7.06831958006944    5.28996775210642    3.42211081289744
H         7.66591742441291    5.76675661203253    4.19541944596018
H         6.69429346435940    6.06044547882888    2.75170344820646
H         7.71801225934296    4.62781352450040    2.85757873502805
C         1.14560743949381    3.74096746867505    2.49645876800328
H         0.95370893151524    4.31589608973080    3.40860469962217
C         0.49850238051340    4.48860508061971    1.32874413035309
H         0.60329270284605    3.93137690955045    0.40251056577881
H         0.96116579839530    5.46418607168472    1.19545013540126
H        -0.56181404311656    4.63270901476809    1.52112855592359
C         0.51534533489266    2.35769773907038    2.67560639779043
H        -0.54522931343362    2.45502032017785    2.89445502335434
H         0.99358545694892    1.82488640887981    3.49777016511440
H         0.62567391622098    1.76183685355909    1.77431569645334
C         1.81184312609217    4.92902556550320    7.63427110182903
C         2.71222168179634    4.65254703181805    8.66546680761362
C         2.19445233350287    4.41031855602426    9.93203207352906
H         2.86593001778328    4.21848812076105   10.75470910433500
C         0.83120143577865    4.43045451421999   10.15732093202412
H         0.44503751748764    4.24364551171815   11.14809345438709
C        -0.04360742940145    4.69610726044806    9.11953436984465
H        -1.10404907740441    4.70463086692632    9.31058236742364
C         0.42892668145372    4.95796434736437    7.83999909263486
C         4.20614595905664    4.64171162478817    8.44192337145624
H         4.41285052352716    4.77982758637311    7.37661161506470
C         4.86017821652537    5.79662826832675    9.20478567367873
H         4.71151018045053    5.69035606447200   10.27598905983204
H         4.43485104038730    6.74824417535243    8.89425002913084
H         5.92880245603562    5.81650308176516    9.00683449452568
C         4.81599547182237    3.30071195741003    8.85626298956496
H         5.87743218320761    3.29066379058705    8.62230689747142
H         4.33775115952832    2.48413883343143    8.31456755044565
H         4.70129241289552    3.13029271336730    9.92364750794581
C        -0.52562639210600    5.20638700480620    6.69553337450074
H         0.01245252084788    5.70663607167875    5.88440668310940
C        -1.03482492945470    3.86116084938241    6.16551404772494
H        -1.58229765442307    3.32914311382095    6.94011581894546
H        -0.20499677801674    3.23723266875749    5.83509651873508
H        -1.70241657498655    4.02392413334630    5.32356486093667
C        -1.69519451541363    6.10758867974157    7.09218417192477
H        -2.24649200764762    6.40207306137458    6.20286543154874
H        -1.33701054382978    7.00683248977290    7.58779538767171
H        -2.38562784628777    5.59560526038576    7.75636929099588

