66
CSD_code = PAQPIH | q = 0 | S = 0 | Stoichiometry = C26H28ClNO8PdS | MND = 4
Pd        0.41938242853333    7.73630999962191    9.64398932080519
Cl        1.49041355284609    6.97942600496722   11.47462752777941
S        -1.11820907575842    8.65732477268917    8.11197751116842
O         0.86451086214540   10.93664031972972   11.84962031096188
O        -0.92739123088392    9.89893282722591   10.96087703685649
O         3.20344961740837   11.85620081423622    8.15340997466660
O         1.46802558517842   12.42459729716999    9.46325478836506
O         1.19174587900874   10.00348462078053    6.57703831193229
O         2.80995003567530    8.62172375654717    5.85817338176530
O         3.24094006144974    6.35015501669401    7.48868300949502
O         5.28998247099018    7.23565461824482    7.22082266790930
N        -0.76482341191665    5.96441753918525    9.31706115648713
C        -0.36595932337028    4.69367633860872    9.32027179129531
C        -1.28722388947341    3.66091525780302    9.16171725612335
H        -0.94915605925656    2.63702812738084    9.17631011949790
C        -2.62368481249821    3.96382472908844    8.98087737092113
H        -3.35308078564832    3.17838127717098    8.85370201915435
C        -3.01536082458760    5.29330296599915    8.94756723007344
H        -4.04653938431361    5.56634726929784    8.78970262469843
C        -2.05195484337484    6.27482046635628    9.13028166603304
C        -2.39167049628838    7.73041608360682    9.07873570176795
H        -2.33411664617988    8.19582025997093   10.07268334558754
H        -3.37707736953283    7.90238483789276    8.64554220213694
C         1.09138985427574    4.43663945267353    9.48671283125869
H         1.67130090558332    5.26339869480335    9.06351020040705
H         1.37817824463004    3.49235752363459    9.03102778787995
H         1.33018276339232    4.40287641026861   10.55111992028788
C        -1.04381790820188    7.56938518154334    6.69176471215762
C         0.07771844723790    6.78179792331044    6.48333952138738
H         0.91173989773140    6.83177709350375    7.18241938337579
C         0.12744827291875    5.95253442760962    5.37574756966427
H         1.00083178920944    5.34434846286761    5.20228280785395
C        -0.93743738677655    5.90762559554268    4.49081382489551
H        -0.89561860024227    5.25764373305415    3.62994406850862
C        -2.05419243480815    6.69972210502167    4.70415119612730
H        -2.88149571789202    6.66991650650234    4.01127387882020
C        -2.10726170080499    7.54010747719462    5.80191062898612
H        -2.96543218438894    8.17330774175691    5.96884498161827
C         1.15201642994329    9.53505987493955    9.97023233463701
C         1.99824367091771   10.11957013035497    9.11301035311731
C         2.69520086617613    9.20356991333114    8.17310851217920
C         3.65119813238185    8.35106326470249    8.58865263729115
C         0.26869408374051   10.16610175469063   10.95443032463322
C         0.03483923186582   11.51953751477581   12.84307750236201
H         0.68687762762428   11.79272969196627   13.66932037209252
H        -0.72444763035653   10.80449525741674   13.16777238884079
H        -0.45466713869596   12.40666760750372   12.43629043570842
C         2.16617054491637   11.57792464316493    8.96291903717379
C         3.44563490335594   13.23148737338056    7.90914723377448
H         4.30510128060300   13.27528730694111    7.24496704676208
H         3.65745977455413   13.75217391734250    8.84567248474037
H         2.57326156792287   13.69417518851745    7.44181984882861
C         2.27166254758307    9.22261298084273    6.75806026952543
C         0.75451381408179   10.15871254953825    5.23769786618303
H        -0.14615057208973   10.76570366447403    5.28167578901487
H         0.54073960437674    9.18589635700186    4.78822405959230
H         1.52489264979958   10.65727395668840    4.64558044298122
C         4.17765419142158    7.29896144433524    7.66262474390169
C         3.60862890511145    5.28766966970145    6.61827339969477
H         2.85392730891125    4.51331268766565    6.73351724158105
H         4.59493902161426    4.90524248787853    6.88850246368190
H         3.64165093638541    5.65464299434545    5.59048270360265
C         4.23348010671067    8.33442637886225    9.95631581902751
H         4.16178396104077    9.31640385719562   10.41664451593302
H         5.26979187743254    8.00701769623111    9.91590779162397
H         3.66861572065228    7.63265630666126   10.57998274281355

