120
CSD_code = PAQRAB | q = 0 | S = 0 | Stoichiometry = C47H70N2Ti | MND = 5
Ti        8.61706821282977    8.70919600630337   11.15767345217515
N         6.88658204879288    8.04949237402425   10.50326501505429
C         6.90485559043939    6.73987738695015   10.70789041644708
C         8.09012201071190    6.00446170027221   10.58000262839512
C         9.36602320252519    6.32423438354295   10.05769562962644
N         9.81161746089303    7.56412806920564   10.03913589248221
C         5.77022515616991    8.84340745120287   10.20983565362125
C         5.27593637201493    9.75899617077470   11.16041551773141
C         4.16455008030319   10.52972285052395   10.85439992890096
C         3.53444878120819   10.42701522442728    9.63005627705746
C         4.04356092001966    9.56312126319234    8.68201562228720
C         5.15332819987644    8.77239517015977    8.94331409333056
C         5.70640020059118    7.91939042371006    7.82225298216806
C         6.17258786063773    8.85062515633228    6.70000195916694
C         4.68786694279160    6.92295569334096    7.26267923190328
C         5.92084903505601    9.91130308632784   12.51915428976860
C         6.37779653484003   11.35766267570861   12.71856954246646
C         4.97260481115150    9.50176467273477   13.64949688975822
C         5.67848663216544    5.87663267010534   11.10217219577757
C         4.32350505023929    6.59127247574327   11.09040667902898
C         5.56061487999123    4.65198194583172   10.17233945116243
C         5.90007266100676    5.39614769382564   12.54628570375073
C        10.10637065424268    5.06950147067873    9.52196414721478
C        11.41199403124680    5.31730484180113    8.75894112617268
C         9.17542385035598    4.33397543282101    8.53742860087785
C        10.43910813152161    4.14518360311599   10.70668951921980
C        11.01839621321354    8.02139536263280    9.47095917011930
C        11.01152659514433    8.53198863618459    8.15586320999734
C        12.20164465903254    8.94584990344656    7.57516467084172
C        13.39398254800107    8.91130298606318    8.26781207394623
C        13.39629722427359    8.46117155625394    9.57113606170132
C        12.23834023984797    8.00408728774393   10.18584367017259
C        12.35539849655062    7.53110904083047   11.62073563369514
C        12.77196101898979    8.70616792231415   12.51442444583956
C        13.37526555564061    6.40063945005803   11.80546430453178
C         9.74381372720225    8.63101675051985    7.33221422736787
C         9.56282164909334   10.05352943338068    6.79203380741846
C         9.77319644684584    7.64265123543658    6.16123143717584
C         8.92422078405765   10.47469505554784   10.52776074809532
C         9.78182190845505   11.69302471914876   10.76222896663694
C         9.12318094546542   12.96661608168905   10.20094525423966
C        10.05516781783190   11.91001521360587   12.25855639187467
C        11.14478660711281   11.51938216537551   10.05739597453286
C         9.28556471592907    8.25989152238688   13.12372391725318
C         8.48763090368925    8.48540190133108   14.33084848662611
C         8.48964444895126    9.72294824498309   14.99295175790961
C         7.75330445009103    9.92460201839438   16.14226113284226
C         6.99108954587842    8.89881453284839   16.68220897946060
C         6.99406828487226    7.66043417556239   16.06077277031793
C         7.73409386270766    7.45698464487982   14.91346577766501
H         7.96070078008463    4.95340659370924   10.77172232269882
H         3.77513220507043   11.21572689729395   11.59131860019301
H         2.66092835589966   11.02297899536679    9.41255010279008
H         3.56325028515618    9.50020520258491    7.71726479284123
H         6.57485459408915    7.36084951502405    8.19356753868656
H         6.82181667065645    9.62067723561868    7.10693645436299
H         5.32221141477015    9.33649673270269    6.22737377785573
H         6.70938595620276    8.29046777658018    5.93785032629107
H         4.30581504894044    6.26158329609350    8.03536487496627
H         5.15472386736471    6.31365245694280    6.49060392308307
H         3.84344025506716    7.44286665125752    6.81663493618184
H         6.82579273324303    9.27343039251564   12.55359110433655
H         7.05992296796983   11.62418356443302   11.91108818099049
H         5.53266287561387   12.04263816630456   12.71687690898942
H         6.89415671399720   11.45072252807845   13.67122322362165
H         4.05454444185490   10.08497856009666   13.61319123448081
H         5.45165749120671    9.66937238855381   14.61073092044152
H         4.70805108071076    8.44808843893897   13.58702086459169
H         4.32573646784438    7.47600335484550   11.71787252214494
H         3.57036246561997    5.90833417983734   11.48377944842181
H         4.02112535765022    6.88254285827957   10.09013396882181
H         5.77519486457068    4.92189160971911    9.14139163558787
H         4.54994574648207    4.25112541503902   10.21865586068929
H         6.23513237770609    3.85089515429820   10.46494697977811
H         5.11255638578458    4.69882911606064   12.82776139514979
H         6.85594601526762    4.89066386658750   12.66426327879071
H         5.86944124945719    6.24203323923312   13.23032578834939
H        11.78259150959904    4.36117435130414    8.38912218401738
H        12.18156829177112    5.74968425458602    9.38528010438873
H        11.26467959318957    5.96939325650736    7.90512459486560
H         9.71742102741018    3.52285386273040    8.05479562509300
H         8.30583062635780    3.90438408049563    9.02356104841575
H         8.82530881782760    5.01696791197881    7.76590824937649
H         9.54673258335798    3.74429433249468   11.18006291765238
H        11.03489940245994    3.30288607332039   10.35997685220614
H        11.00929334326779    4.68128657895378   11.46161411737875
H        12.20265136500503    9.29873050940230    6.55510578030149
H        14.30999445621205    9.23681216214552    7.79863141903207
H        14.32574152073740    8.44934952789301   10.11951241181900
H        11.37643176680126    7.16526646845440   11.94655064677541
H        12.71063674344592    8.42498288537768   13.56435340005319
H        13.79765180613472    8.99997036145638   12.30266960294478
H        12.13063638280996    9.56750204203920   12.33829053662111
H        13.12882269491424    5.52456434216784   11.21154118389992
H        13.40028802433373    6.10343561022270   12.85251355005771
H        14.37397900686096    6.72577317253591   11.52499662405837
H         8.88548362009234    8.39873781281317    7.98026929999908
H         9.41469630227605   10.74729688443930    7.61470615702471
H         8.69888882398365   10.10315875734697    6.13401076710779
H        10.42954617656904   10.37492276808590    6.22109170781054
H         8.89347180522989    7.77238961795802    5.53478535225028
H         9.78836955818569    6.61378312782198    6.51146319195241
H        10.65461467845192    7.80513136858946    5.54468857552689
H         8.30365778716973   10.61281347389037    9.61396621665951
H         9.75508645559616   13.83520064586560   10.38199493027588
H         8.15710022094837   13.14449139784829   10.67060841196682
H         8.96740535809469   12.87889065678618    9.12673556365899
H        10.46951817914843   11.00125491864824   12.69231530913758
H         9.13653096459132   12.16162397153334   12.78309294332039
H        10.76554619640733   12.72381424982521   12.40274050384198
H        11.62930264165293   10.60683953657897   10.39656985789645
H        11.79473572019222   12.36682187270386   10.27250447008858
H        11.01970919156745   11.45165383582076    8.98006657928433
H        10.24453371028389    8.78265725407855   13.23198220434266
H         9.46941884704651    7.17395589549151   13.01918072400635
H         9.09627200535548   10.52618184329730   14.59598723197479
H         7.77781691268702   10.88904187060395   16.63205153016230
H         6.41761210419484    9.05794914406773   17.58370010806713
H         6.42691573388847    6.84273204642733   16.48508597685542
H         7.76250141515572    6.47013134611925   14.46876525691165

