54
CSD_code = PAQSIK | q = 1 | S = 0 | Stoichiometry = C23H26N2OPPd(1+) | MND = 4
Pd        1.92156639267756    5.25572085541646    4.64075280079239
P         3.19762223489249    3.74127089260210    3.60016858913858
C         5.92468806073353    3.77260197252550    4.01363049443270
H         5.84979133258234    4.81574339014502    3.73306603515979
N         0.70152141731479    6.69996911762119    5.48916213081342
O         2.21073040049152    6.28437656594364    2.61982335044072
C         7.14324527044640    3.23188716343106    4.37794163308782
H         8.02980919649577    3.84727398405459    4.37061352595959
C         1.95250333469540    3.05770890551817    6.71435305673370
H         2.43292567795584    2.41057502266469    5.98559332574160
N         3.63925011214665    4.60296020168680    2.16192042332741
H         4.29101283453298    4.20346594236380    1.49596638277334
C         3.02524033631096    5.77503688160558    1.86096544528098
C         4.78177762180967    2.97517497930292    4.01285927460051
C         1.67155838261352    4.37752789482971    6.40450346278784
C         2.12920469971845    2.44284427926531    2.90822831191635
C         1.01711240006876    3.36206465633461    8.90659214957392
H         0.76374850086581    2.96705375449147    9.87792628723110
C         1.05190274273551    5.19352908213133    7.35504886635967
C         1.05422470567792    8.03249499457351    5.00002604913824
H         2.09487488333980    8.25514934168442    5.25575368524590
H         0.40699771416559    8.79931251574788    5.44360032324092
H         0.94475639311052    8.06698294322806    3.91362623055090
C         4.86054881809391    1.64723768514034    4.42070055738747
H         3.97051623926107    1.03424063669613    4.44300266013531
C         0.80046989786687    6.62572609741579    6.96111397778191
H        -0.10347954733938    7.03406091566372    7.43294098028053
H         1.65466076504729    7.23291133619401    7.28460366573630
C         0.77195383601709    2.52542393444359    3.21445626479789
H         0.42526786523928    3.31585692503079    3.89198496328665
C         1.62938317502991    2.55220741678007    7.96682072148567
H         1.85687841976690    1.52421140635666    8.20410036743935
C         2.59320650324438    1.45093863629105    2.04952030349681
H         3.64610808393992    1.38990667872056    1.81017207685509
C         0.35276228461391    0.61732774984145    1.82658263819592
H        -0.33702429968962   -0.09828132281098    1.40689166604743
C        -0.11363464812894    1.60997604011564    2.67511942473576
H        -1.16458602254870    1.66671778384279    2.91346652959405
C         0.72663988486000    4.68133366329240    8.60267459138593
H         0.24817775561849    5.31555852023485    9.33429466489802
C         3.40542296507451    6.40636903442140    0.55405181791740
H         2.89914431546074    7.36168194009327    0.44664137173326
H         3.11642871540611    5.75605570291149   -0.26974647537803
H         4.48135770886234    6.56149183891990    0.50559077072461
C         7.22315528125088    1.90165582496864    4.76111546205009
H         8.17454943862845    1.48139980475649    5.04781588363109
C        -0.65033346846713    6.33984133010503    5.05095111077734
H        -0.93538308925370    5.37773140498896    5.48792667793201
H        -0.67820366204582    6.26590089148628    3.95741995969986
H        -1.37897528287242    7.09715526074200    5.36752569853331
C         1.70122262675400    0.53947673819592    1.51318107903158
H         2.05761434797071   -0.23359248852205    0.84981517282387
C         6.08335649608057    1.11381362349205    4.78700244976130
H         6.14662995081574    0.08183965302398    5.09604113293351

