67
CSD_code = PAQZAL | q = 0 | S = 0 | Stoichiometry = C29H29I2N5OPd | MND = 4
I         7.24065498587675    7.62279934196206    2.48185131432666
I         3.94540677745151    3.70074509480903    1.48033126028709
Pd        5.49999131281661    5.69646816436483    2.11567911814862
O         5.41019568517025    2.86849778205301    5.31440581576435
N         7.74062314987215    3.77518272691035    1.66657347529108
H         7.66079293656981    3.96404858310512    0.67148174277705
N         7.11271518714480    4.28975632346327    3.80144571162403
H         7.74794289299035    3.62257589695742    4.23779698268201
N         6.13605111766724    4.88881806564508    4.59534727977356
H         6.36080002290583    5.81920475536866    4.95288586120756
N         3.39702771393634    7.71106899448729    1.13846716524898
N         4.41209021183235    3.66956055677019    8.07210821941921
C         6.93648648476027    4.41881873129736    2.48745381530910
C         8.78567648932645    2.88890281800544    2.07619456273982
C        10.10552555574921    3.31595167959306    1.92342606472029
C        11.12171442977090    2.46317191983532    2.32798911124868
H        12.14950271500705    2.77486935410333    2.21835417018751
C        10.82503915350350    1.22541591866539    2.87112692699724
H        11.62488607532731    0.57193653383009    3.18510189761515
C         9.51121462379972    0.81845319621478    3.00757539478066
H         9.28620560171885   -0.15207757072997    3.42323941162087
C         8.46265690145421    1.63974411193166    2.60897350899570
C        10.39736983530067    4.66257081331065    1.33671948843368
H        10.12493075599030    4.68793831738799    0.28072382579753
H        11.45512693818672    4.89496839818943    1.41874908866236
H         9.83299819971311    5.44497772112769    1.84375875888667
C         7.04262666699770    1.18590509633175    2.73937844669639
H         6.58133536737045    1.55975239093021    3.65545306479054
H         6.99664418058667    0.10087578394326    2.77315513571084
H         6.43705043406808    1.53120062866045    1.90340325244578
C         5.28444320753011    4.06895481471986    5.32199979905127
C         4.17377123903553    4.82995659293017    5.95160027749702
C         3.49214514578627    5.76029386557962    5.16945621800292
H         3.84415574235351    5.97439631868784    4.15591094996326
C         2.34903258435604    6.37565608781923    5.63969316502480
H         1.82408507215158    7.08768807858893    5.02178827734280
C         1.87382681732599    6.06264339515267    6.90435267432279
H         0.97600351015288    6.53342745144295    7.27484582266557
C         2.55035443800408    5.15928982724830    7.70019072611474
H         2.19520684067879    4.93692601886640    8.69475516688519
C         3.70853729665443    4.53553077196959    7.23948219650642
C         4.12598753639502    6.96754675587491    1.66089776847809
C         2.54044242427193    8.56590502439623    0.52723260007520
C         1.36730962909205    8.04841270776067   -0.03675216885800
C         0.51672737665953    8.93904838158590   -0.67203273703780
H        -0.39409362455671    8.56950596426577   -1.11860009573149
C         0.82511929616909   10.28732172763409   -0.74120435874248
H         0.15075615554983   10.96491827896194   -1.24276691493430
C         1.99130282652872   10.77469429483651   -0.17517482056851
H         2.22276123352204   11.82745272384674   -0.23660073112816
C         2.87453368297320    9.92484206755556    0.47101043045098
C         1.07088296426087    6.58644765389046    0.05681873942746
H         1.88743001220308    5.99724724304093   -0.36095898233453
H         0.15798291466088    6.34200174086259   -0.47810626423535
H         0.95589487391116    6.28151296172156    1.09770186501025
C         4.14505364206501   10.41162355575003    1.09095328320557
H         4.15536172035053   10.20635150696689    2.16194040009236
H         4.26322702669111   11.48079830251180    0.94164876755918
H         5.00645890872222    9.90310851313379    0.65737074209707
C         5.77160277873537    3.61317767551938    8.20686239495942
H         6.41275015593147    4.27896205794093    7.66198870666233
C         6.07960274047401    2.67326568996300    9.14434529792420
H         7.06281493768285    2.40533168744881    9.47683351718692
C         4.85996187147387    2.12056948755606    9.59494452840191
H         4.74471780180285    1.34361145150552   10.32414497640204
C         3.85707110053661    2.76088552744784    8.92970428543901
H         2.79659571865170    2.60979166346554    8.96497362753832

