131
CSD_code = PARFIZ | q = 0 | S = 0 | Stoichiometry = C44H74FeN2O10 | MND = 6
Fe        3.96197012596494    2.62241992111575   10.45256234530823
O         3.65520834440606    0.96252279473381   11.44249518519426
O         5.64194817733841    2.87773324685749   11.42414444297611
O         8.35619428392537    6.02696537507321   11.01513164931865
O         7.05260741720636    6.91647691325281    9.43243641216619
O        -0.46782256516680   -0.38239177520899    9.57993577410318
O         0.44521470440233   -1.62831068446654   11.19222489317881
O         5.16003001812631    1.48050391417011    8.96811966369255
H         5.78274445742775    1.09503382356547    9.59737490122181
O         2.91095327220630    3.65226068013347   12.11965512267807
H         3.31068085300030    3.14231597464675   12.83535508658908
O        -0.19735805006392    4.95359247662242    6.14345903442440
O         1.94873912209804    6.75570692621544    6.03641328893344
N         2.34170312767647    2.43406293550065    9.49280621290037
N         4.21076106129842    4.21320952766848    9.45511318329009
C         2.68134792042259    0.16743763947639   11.38180429072083
C         1.58606640231126    0.34846900826428   10.49794559158367
C         1.48968739627639    1.46055574616608    9.63005264136858
H         0.58203501414761    1.44206644495174    9.03124051942681
C         2.13599223179798    3.47865740965021    8.60414128178069
C         1.02109600052163    3.64300565218284    7.78131838710826
H         0.22522783030280    2.91920852365728    7.82300487843875
C         0.90152368392891    4.72166364169648    6.92073319877844
C         1.96048819346498    5.64989367228819    6.84185066107291
C         3.06009084597217    5.49744512312804    7.66904209362541
H         3.82737710397742    6.24985875641571    7.58718662011170
C         3.16704804867609    4.43957007780774    8.56940767281486
C         5.22760453263357    5.02308310456329    9.54071677227506
H         5.25923763703390    5.89893530791785    8.90196108925603
C         6.33334522261673    4.89956201314759   10.41086447653663
C         6.48120988855953    3.80898151796038   11.31156839665611
C         7.34406386040908    5.94933315820937   10.34944413590264
C         8.00421060290966    7.95961902342150    9.33302160742309
H         8.11354382902966    8.47155452593173   10.29195236401598
H         7.62591052094907    8.64307734823279    8.57653753934236
H         8.97845651359742    7.56280927022345    9.03839205186116
C         7.68743005396332    3.71100369044097   12.20895897371850
H         7.75810005089081    4.58389846659554   12.85251868895145
H         8.59851672415067    3.68178765976997   11.61740338962502
H         7.60222600587754    2.80840319873883   12.81016513799851
C         0.44334173542857   -0.55277558647771   10.36872681825691
C        -0.66989780616149   -2.49217190841447   11.05966570127494
H        -1.59694602840986   -1.95703816749695   11.27698515731851
H        -0.51621035930556   -3.29640461254235   11.77529292967544
H        -0.72923744003388   -2.88840248366144   10.04343710433068
C         2.76185627498930   -1.01701665119990   12.31462078165491
H         3.68710754930533   -0.94193103617900   12.88193160527476
H         2.74813163105830   -1.94999075298808   11.75797733103567
H         1.91493140568162   -1.02481190886812   12.99465005224730
C         4.58113900746310    0.43394733567032    8.20798273131704
H         4.02549473220090   -0.26294690369863    8.83943698644646
H         5.35495578317807   -0.10574207305475    7.65395132932308
H         3.89322245527489    0.89850280534689    7.50474097996145
C         3.12061265596400    5.03020747857437   12.37846947072834
H         4.18431222244555    5.27548566357934   12.41803777688806
H         2.64056202549698    5.31603908398277   13.31910897335909
H         2.66110103209998    5.57859922215947   11.55890804912793
C        -1.36763199348204    4.19669276298378    6.38205741927004
H        -1.58539228438122    4.17490653158833    7.45800411477316
H        -1.23325931707538    3.16523308248364    6.02732498106797
C        -2.52170335726359    4.86133951255824    5.63859106746978
H        -2.55253197881237    5.91405899400783    5.92630684335898
H        -3.45441932308537    4.39353798011577    5.95887080497134
C        -2.37942584410769    4.75161980782443    4.12290307544757
H        -2.42043167297984    3.70005848481732    3.82910966053835
H        -1.40462169823819    5.14342132384809    3.83062115501622
C        -3.47755033372260    5.52721538432783    3.40146153831596
H        -4.45356620055394    5.13862126382296    3.70235340775511
H        -3.43440673421972    6.57548387034964    3.70748168752724
C        -3.34640362218522    5.44405939137495    1.88329606738402
H        -3.43973453755212    4.40295532393942    1.56566021192400
H        -2.35403440545870    5.79174055947408    1.58891306983093
C        -4.40417354438835    6.28817784611449    1.17761820723024
H        -5.39860000531935    5.93747503463644    1.46427197919229
H        -4.31387140948001    7.32489671367582    1.51124657116996
C        -4.26873527297283    6.23813023398372   -0.34160699603141
H        -4.39571636678103    5.20828034029518   -0.68396389447758
H        -3.26284308623634    6.55746888194601   -0.62338999630937
C        -5.29213566449991    7.13387545815631   -1.03419809515154
H        -6.29930116257956    6.81998565040600   -0.74899290937928
H        -5.15856002248765    8.16214582975908   -0.68974501721489
C        -5.16279612429620    7.09312763105847   -2.55435665087094
H        -5.31614159820545    6.06903708405953   -2.90388720924982
H        -4.14939846158849    7.38816708395049   -2.83729004011041
C        -6.16573157235243    8.01803120050920   -3.23851757026171
H        -7.17934841889929    7.72479295642140   -2.95423658451009
H        -6.00788933538159    9.04069401618908   -2.88855313734926
C        -6.04028941593585    7.98395331900595   -4.75937169133772
H        -5.02693461836471    8.27747621563504   -5.04400059832640
H        -6.19748145128997    6.96194379921337   -5.11218551095911
C        -7.04418520163867    8.91247019660450   -5.43110096195816
H        -8.06170886682197    8.61702050901046   -5.18404861180839
H        -6.93147527162672    8.88335164038558   -6.51253158767714
H        -6.89606055737863    9.93718624115208   -5.09851220424517
C         1.62647428924133    6.59210073206439    4.66207025354756
H         1.34515135049618    5.55858124669973    4.44683307719246
H         2.53719124784367    6.82665445819152    4.09200740337144
C         0.50871994468658    7.54617026813305    4.24960315056565
H         0.76309257415257    8.54610857215749    4.60552860754086
H        -0.41599584972714    7.23892040613456    4.73869523236715
C         0.33187504834697    7.56372345368776    2.73425466448429
H         1.27543545079499    7.85995550161293    2.26877390096024
H         0.09820159810445    6.55524655829291    2.38337286658440
C        -0.76721746870724    8.52344908123053    2.28550523122185
H        -1.72438639363551    8.19990308499105    2.69871132112955
H        -0.55680455689983    9.52055877735174    2.67877744617720
C        -0.86678281045700    8.59414597178218    0.76355162055217
H        -1.07409850795954    7.59695475579545    0.36771954327123
H         0.09600143369342    8.91331455380599    0.35668910494278
C        -1.95240699310185    9.55837818276864    0.29304427558747
H        -2.92073233412506    9.22876714783347    0.67562076742039
H        -1.75553625719298   10.55140209296039    0.70431096733954
C        -2.01313566211631    9.64617071059591   -1.22973702693338
H        -2.22455722676485    8.65597411276473   -1.63993062569985
H        -1.03728157555468    9.95772459897320   -1.61064022498534
C        -3.07639791409550   10.62854666715766   -1.71332377897849
H        -4.05452898814734   10.31590092891767   -1.34039390888607
H        -2.86805816562688   11.61843951236072   -1.29986949127091
C        -3.12105903152612   10.71654977738372   -3.23658813610277
H        -3.34389853332040    9.72960757462676   -3.64797406824399
H        -2.13748691925312   11.01382459300081   -3.60878717816375
C        -4.16637921193908   11.71417236101392   -3.72792426514347
H        -5.15140182544877   11.41801819119984   -3.35855479280141
H        -3.94514932392877   12.70185308024528   -3.31580256522060
C        -4.20530245991025   11.80133813147095   -5.25159120916679
H        -4.43139125576553   10.81558482004477   -5.66372679589066
H        -3.21976593985732   12.09527313323328   -5.62026152637754
C        -5.24533836084075   12.80321467354761   -5.73743470733707
H        -6.23820790840426   12.52318654044962   -5.39114593642909
H        -5.26111288977637   12.84334544777209   -6.82414215567023
H        -5.02212518256048   13.79897660867524   -5.36012707055048

