137
CSD_code = PARFEV | q = 0 | S = 0 | Stoichiometry = C46H78FeN2O10 | MND = 6
Fe        1.15395488086587    1.65587353479680   11.09876547897064
O        -0.59472437915580    1.67553280466696   11.98432302212161
O         1.59144761882938   -0.01372526330987   12.02500051120626
O         5.85035938234604   -0.87921158381412   10.18722802600822
O         4.94779349733184   -2.37144378872958   11.58977493779664
O        -3.69074300377448    4.42799712033852   11.42487846589264
O        -2.40412668041073    5.53643580527019    9.97152064170890
O         3.19957390991794    6.29547093721113    7.15223356541523
O         5.19936087838755    4.71052580326142    7.15606620657295
O         2.00621945403008    2.69191537294033   12.86664919164376
H         1.67145867956702    2.06678687627086   13.52209109024733
O         0.28538439549809    0.35819578742749    9.51002937496996
H        -0.04152578522202   -0.32762234197074   10.10611146710536
N         0.78199314403805    3.26685140425062   10.16887471532734
N         2.81788927999883    1.68959842482785   10.20839664174367
C        -1.53685648019714    2.49975545501029   11.85113286273210
C        -1.48256199983908    3.62176552831872   10.97745361168291
C        -0.34162036473814    3.92632350774589   10.19954683180358
H        -0.45592990100214    4.80876897375081    9.57962613011227
C         1.85648542199778    3.67761613256694    9.39169963564387
C         1.91446305535144    4.85561516704825    8.63734032580204
H         1.07521781135282    5.53076250039840    8.63052630779836
C         3.03882053557915    5.17595066163230    7.90649217223187
C         4.15212287128526    4.30176481904020    7.91610516661712
C         4.10504256233006    3.14579770438091    8.66737332898948
H         4.96203600637524    2.49438162154149    8.68445929604606
C         2.96705394809801    2.81418574531228    9.41156752741487
C         3.73191750737491    0.76916418589579   10.28498195363970
H         4.64109005945186    0.85611932021681    9.69460850542978
C         3.71208495647353   -0.40241965894534   11.07602528191844
C         2.62877491961911   -0.72226776911083   11.93029651329809
C         2.64219613526555   -1.95060671016546   12.80812517120296
H         1.72845978503661   -1.95872986847943   13.39872448024586
H         3.50588365120147   -1.94403323030496   13.46656215122933
H         2.69360352906059   -2.85117213974850   12.20279291772374
C         4.92271115812431   -1.20574010885784   10.90442217113779
C         6.12139192531430   -3.16448596208552   11.44762001487202
H         6.46096784155467   -3.11869672157017   10.40735753844129
H         5.80767060649819   -4.18216619837615   11.69298935997188
C         7.23327554013993   -2.69639061147103   12.37725788830435
H         7.53306115127143   -1.68695479883390   12.10782813423641
H         8.09094503603343   -3.35685279751901   12.28491963142416
H         6.88917558080601   -2.70034141162802   13.40903363137076
C        -2.76437239588649    2.23261750597539   12.68346872542194
H        -2.59354303969866    1.33861088967454   13.27930052023348
H        -3.63463683498100    2.09647691627147   12.04672792523604
H        -2.97875133971507    3.07882074986854   13.33099722850379
C        -2.62513101883940    4.51736826180238   10.84826101087219
C        -3.48598240419337    6.44385108737288    9.79702467399408
H        -3.74259410398778    6.88646974519201   10.76669095166513
H        -4.36244936797512    5.89128262936151    9.43837469979762
C        -3.05904507599625    7.50698788531160    8.80120890369959
H        -2.18842646226271    8.04075585691682    9.17364284006634
H        -3.87026460830299    8.21300331564885    8.64915619001693
H        -2.80446664763643    7.04750685734052    7.84957422854883
C         2.12307480350882    7.19256194438682    7.00117302839736
H         1.83692447988572    7.61746350453725    7.97439817915927
H         1.25168159004759    6.67510526630226    6.57414633234038
C         2.59088868450592    8.30189178709476    6.06304077659448
H         3.47970559285229    8.76346625153217    6.49566161612836
H         1.80785950602993    9.05933482633909    5.99236086750958
C         2.92963941879650    7.75765085160723    4.67714460874592
H         2.02634039600944    7.34586517461333    4.21994176086954
H         3.64927672449591    6.94611723725469    4.79166373488761
C         3.51286576624758    8.83472663543122    3.76730421378078
H         2.81844646911780    9.67732793563314    3.71297855307167
H         4.44649665577895    9.20432320760501    4.19692814678516
C         3.77626565452925    8.31216323149175    2.35734246333672
H         2.83789344815346    7.95190034360799    1.92824866833745
H         4.46338616993117    7.46487242778907    2.40689759807850
C         4.36200931539128    9.38872720652125    1.44679786286826
H         3.72509626127993   10.27615800252352    1.48483543832527
H         5.34947878885027    9.67779727745896    1.81428666733616
C         4.47433155805751    8.91872503779084   -0.00109206561157
H         3.48137764370937    8.64171724083377   -0.36420824856459
H         5.10226993989705    8.02681512607501   -0.04584386329036
C         5.05719003396127    9.99606087998977   -0.91231701969491
H         6.08288112256167   10.21555807419981   -0.60515555100627
H         4.47771364073338   10.91581774597396   -0.79891059074372
C         5.04431074963857    9.57404720220677   -2.37928948382864
H         5.60272345918844    8.64271276126056   -2.49264871070217
H         4.01380467466622    9.37943560620126   -2.68707991102935
C         5.64765769954762   10.63934026866547   -3.29087620676686
H         5.11145722281876   11.58133259482918   -3.15117646362918
H         6.68946078328540   10.81062279278477   -3.00723677496738
C         5.58434482685468   10.23803281757058   -4.76248970606564
H         4.54090050927717   10.08927207920721   -5.05037009738575
H         6.10209307640013    9.28662913107910   -4.89846549709656
C         6.21279873147164   11.29080297715414   -5.66698496284641
H         5.68931887250722   12.23966774879774   -5.57022158046208
H         6.16819219978724   10.97870485016099   -6.70801662023184
H         7.25594514474906   11.45063741603025   -5.40057873881194
C         6.34572748355852    3.89464718634557    7.04507324334106
H         6.07168995240129    2.89151422236811    6.69035456776564
H         6.84154558255367    3.79903213420023    8.02132533169542
C         7.27247298866513    4.57576554260705    6.04158659597960
H         8.24330535397113    4.07783402341651    6.05488375047953
H         7.40989096885756    5.61082203035017    6.35812529769256
C         6.68301238255729    4.55037823836821    4.63243443762896
H         6.67747962598860    3.52198103115739    4.26274881636605
H         5.64912578184865    4.89532072045204    4.68260830937307
C         7.46637611633491    5.43472288636079    3.66601345544896
H         8.52863873462181    5.18433481543744    3.72472786604636
H         7.35646575376015    6.47956194075684    3.96471866586200
C         6.99423089579648    5.26627819079856    2.22351435918272
H         7.18573179573140    4.23941655115949    1.90268725660358
H         5.91509897744097    5.42944118937986    2.17117070585353
C         7.70117805668994    6.23041517947616    1.27340118242760
H         8.78044325678211    6.16162658129592    1.43035958311582
H         7.39962550933914    7.25449285924323    1.50560006664011
C         7.39343208713927    5.92878003098967   -0.19130682024149
H         6.31265635280833    5.95808833976856   -0.35162914983572
H         7.73052997809695    4.91621032283346   -0.42629408921674
C         8.07557745839141    6.91667847129568   -1.13463256354757
H         7.68886250660467    7.92135494639406   -0.94895104960133
H         9.14749565018062    6.93256573069298   -0.92271186560218
C         7.86217096744223    6.55316710363397   -2.60190400426969
H         6.79059736436569    6.52122621775163   -2.81642116977981
H         8.26109108682873    5.55252125291594   -2.78605699310653
C         8.53906440880024    7.54555105992208   -3.54409110687228
H         9.60669797456331    7.58865648916370   -3.31510732716618
H         8.12630240759360    8.54290240018739   -3.37658941752293
C         8.35573167782718    7.16251025618392   -5.01062889380224
H         8.78096059728361    6.17030052266658   -5.17912315498589
H         7.28829501722214    7.10397493861032   -5.23843803528700
C         9.02029136682266    8.16377613294792   -5.94747653770321
H         8.59464632332348    9.15525107113509   -5.81115667579852
H         8.87902643729898    7.87018066482498   -6.98517025444661
H        10.08857879542457    8.22013965006311   -5.74911856369482
C         1.57146323385708    3.99306278953072   13.22111274369016
H         1.96554368816229    4.67211211189625   12.46797290653849
H         1.96745046236855    4.27194465703445   14.20208488210154
H         0.48155048008454    4.06574501573937   13.23022607972466
C        -0.78929192579746    0.79503732841867    8.69565380505449
H        -1.60097185288960    1.21898304979621    9.29116420733234
H        -1.16946732551840   -0.03437156704799    8.09193317653038
H        -0.39296087233779    1.56593429695358    8.03819818008845

