37
CSD_code = PARHUA | q = 0 | S = 0 | Stoichiometry = C12H20Cl3NTi | MND = 8
Ti       -0.18003356007420    1.22108420184312    8.20890362636275
Cl       -0.87439161463164   -0.72177561737859    8.86939922271024
Cl       -2.14628347484788    1.88160186295195    7.58418321860734
Cl       -0.11357213703648    2.19804581351389   10.11794217970288
N         1.52238776697603    1.63816434605992    7.36830349138144
C         0.72835628694555    2.09466612244808    6.33785945647726
C         0.32842683894305    1.01265130250557    5.54418113254001
H        -0.25834840115915    1.05099591476766    4.64103194730610
C         0.89293053849127   -0.14492922330665    6.11570547147425
H         0.81299886603219   -1.14651534077138    5.72591770696572
C         1.61899120392987    0.26884598011147    7.23932881965646
C         0.61484971791038    3.58120255545978    6.08699336227862
C         0.40119387267233    4.31978801517506    7.41662543604860
H         0.43641718680997    5.39469136649089    7.24936650948452
H         1.18450661427150    4.05429677692200    8.13131492209881
H        -0.57553304790552    4.07030089450608    7.84163213060315
C         1.94877840297080    4.03103300844589    5.46695826358666
H         1.92510516628066    5.09795602389701    5.25891886307546
H         2.13387967733484    3.49895858138432    4.53646707090173
H         2.76671430788492    3.82286876001667    6.15274389066395
C        -0.53779045001172    3.89139401232384    5.12977416408136
H        -0.64057055675959    4.96768871684008    5.01383701254682
H        -1.47249004938803    3.49319374886992    5.52041723480000
H        -0.35315392688773    3.46055045515749    4.14868414453610
C         2.60350120839918   -0.49231267669443    8.09769692291652
C         2.51502639525135   -0.00393012405293    9.55124280512926
H         2.63985830230185    1.08105236249225    9.59778863856125
H         3.30203545607376   -0.46762078167914   10.14286838273766
H         1.55038144251159   -0.27598159592710    9.98965734837635
C         2.33684794528370   -1.99777774142299    8.03847136373534
H         2.48719917946140   -2.37859870578404    7.03108999542214
H         1.31638728842799   -2.21448870300452    8.34891415382505
H         3.02112590815144   -2.51912689058451    8.70354748761068
C         4.00565998997012   -0.18507738865725    7.54470636493414
H         4.76103057621009   -0.70961871034808    8.12451420374940
H         4.19969558775926    0.88372336180595    7.59548331752166
H         4.08198149144620   -0.50090068437647    6.50662973759048

