44
CSD_code = PARHIA | q = 0 | S = 0 | Stoichiometry = C20H19Cl2PPdS | MND = 4
Pd       12.82362927805771    2.94982053940349    6.99611663373377
P        11.78417727330050    4.33089547663470    5.54120726255625
S        11.35825185218854    1.15454323218260    6.39524047315620
C        10.11786907997509    3.58408745873204    5.13941529639081
C         9.54717815614790    3.20514081713200    6.46936197520880
C        10.11516280023003    2.15359179617987    7.20816416753375
C         9.68998212005392    1.89669236836524    8.50461782466968
C         8.69298957721322    2.67396666135809    9.06966706829751
C         8.10915274106238    3.69717134443234    8.34453907311065
C         8.54744403827634    3.96553067557354    7.05924284902851
C        11.56500883126846   -0.28057421837033    7.47907441366299
C        11.21389464829498    5.74313251221159    6.53817060534816
C        11.15216224562782    5.57941520369080    7.92056311747635
C        10.64688101529017    6.59190779665035    8.71435588879662
C        10.20020283995595    7.76881838977393    8.13462939983236
C        10.25882654714423    7.93388207552418    6.76064091800426
C        10.76044590897038    6.92313205855675    5.96001120489857
C        12.39797306939287    5.07853015422282    4.01277771176748
C        13.44396200392128    5.99272048599864    4.13847951722795
C        13.98894541401523    6.57388514402550    3.00989975239298
C        13.50337325624348    6.24161913884478    1.75405773827336
C        12.47718507147820    5.32014235786392    1.62709082646261
C        11.92516591651016    4.73171996967059    2.75180425299304
Cl       13.65226462921611    1.80475157752009    8.76389845378018
Cl       14.30458655254134    4.61086852606961    7.30913921017235
H        10.26738716085967    2.70606984706735    4.50425097332823
H         9.49019494784909    4.31739276539974    4.62850163695094
H        10.14614988204591    1.11298471319262    9.08776193386433
H         8.37784185815824    2.47464046284470   10.08215427424707
H         7.32828585118546    4.29865735105874    8.78275817014142
H         8.11348754632605    4.78286250165668    6.50192143441887
H        11.52387465974263    4.65500515371693    8.37937518212515
H        10.60577228820747    6.46601753713730    9.78559658048961
H         9.81042215499938    8.56145517863761    8.75576933422289
H         9.91319593560215    8.85315900015449    6.31103183882005
H        10.81033516939364    7.05065784769385    4.88719995438040
H        13.82256022537216    6.22454841308647    5.12517747618820
H        14.79675075398865    7.28345673395894    3.10739674858717
H        13.93049781799254    6.69580376511988    0.87237557458854
H        12.10670533874296    5.05514380361949    0.64758681929539
H        11.13101039473789    4.00690127087902    2.64542334325746
H        12.16439366723454   -0.98591710971572    6.90906975613319
H        12.10869179746657    0.01911326377000    8.37604363583169
H        10.58962768371810   -0.70714404152439    7.69393969836423

