50
CSD_code = PARJEY | q = 0 | S = 0 | Stoichiometry = C22H25PPtS | MND = 4
Pt        4.12260699350182    5.01149474817348    5.18220967777962
S         5.36817536109550    5.62584457311007    7.30681095228514
P         5.32512746407354    6.76870664238708    4.19208621006829
C         2.92033167776222    3.69345292987291    6.17412787365725
C         3.26701599689588    4.37003655206675    3.42975653718177
C         4.74739394057286    4.86360169442578    8.83188557053604
C         4.68199608842850    7.26522009765353    7.34278009198324
C         3.66725821780298    7.63029411136576    8.21630353630917
C         3.18920432169837    8.92811620916195    8.22293709569179
C         3.72696219866490    9.87290569451699    7.36764949359924
C         4.73500958351826    9.50872587968022    6.49340704848846
C         5.22961895558613    8.21292226464649    6.46635259730076
C         6.24487087156836    7.80522650994907    5.45249012922867
C         4.09224156541249    8.02983627897221    3.73204301330629
C         2.80248000944423    7.85503142063968    4.22059097248642
C         1.83957337098218    8.82447073300013    4.01056185242315
C         2.16154705997392    9.97473174948887    3.30956083265810
C         3.44468208049429   10.15169748360731    2.81640346450268
C         4.41117530316349    9.18613628678699    3.02926360799241
C         6.46159812680617    6.79764853311447    2.77261188709783
C         7.83875582817100    6.69792149923306    2.94398288200147
C         8.67513560719356    6.63560199193225    1.84425399052605
C         8.14576562854838    6.65553107020695    0.56462886944027
C         6.77332426119730    6.72795472826889    0.38665319249683
C         5.93480038730450    6.79144550684511    1.48294895636584
H         3.22761124032809    6.90686921669019    8.88383627090059
H         2.39273222012793    9.19609988116659    8.90060904099284
H         3.35799833293494   10.88692118832696    7.37358392960042
H         5.14811058713958   10.24069465770309    5.81446299783767
H         6.69339773575923    8.67411731692359    4.96575137107394
H         7.02636608760128    7.18879522107113    5.90591123331691
H         2.56705209907909    6.93658244749718    4.76148740811416
H         0.83926956039689    8.68506913070949    4.39292664387709
H         1.41247426678339   10.73534549705467    3.14411143089643
H         3.69296148130588   11.04911041896790    2.26769579137793
H         5.41276225642552    9.32630875339368    2.64473761904939
H         8.25891611683764    6.66817142786061    3.93939685006504
H         9.74425376785499    6.56787877005676    1.98569837541427
H         8.80101101961756    6.60757728823588   -0.29254216854825
H         6.35669039123012    6.73261775239856   -0.61006854778088
H         4.86303520908869    6.84516964619873    1.34726176400837
H         5.00476310599272    5.49949544704266    9.67441709275703
H         3.67779867630715    4.68771090799933    8.77760124764393
H         5.26710538747247    3.91293966316538    8.91314605362582
H         2.24903520686668    3.07209460290206    5.58064993856764
H         3.54578184774392    3.01270527797675    6.76548461302567
H         2.29002492220738    4.26425775569478    6.87383924894295
H         3.55160063509424    5.03342468811014    2.60744360883450
H         3.64939331539363    3.36727178692967    3.21212167790187
H         2.17710363050062    4.32031606685837    3.46843617308475

