39
CSD_code = PARKOJ | q = 0 | S = 0 | Stoichiometry = C14H16NiO2P2Se4 | MND = 4
Ni        1.44106676596418    1.41666339142780    4.06990389354529
Se       -0.25644482182708    2.98614606329122    3.25965891865525
Se        3.15866460994919    3.15745702042150    3.90392927300449
P         1.66640148003252    3.38022841479095    2.35872232978927
C         1.98956650372709    2.28060191569269    0.94958316469404
C         2.21569499889909    2.74860116793109   -0.33531910234110
H         2.20245511063007    3.80937291219834   -0.53015293683277
C         2.45564156446940    1.83684188098303   -1.34860470875679
H         2.63299200593696    2.19159527027976   -2.35295610935946
C         2.46966256576538    0.47724942437085   -1.08137059470451
H         2.65785461055971   -0.22537575308558   -1.87920552738991
C         2.24342423230528    0.01303330427543    0.20538636881778
H         2.25376667905110   -1.04527394279525    0.41643297159312
C         2.00356095747729    0.91867741416037    1.21946135132998
H         1.82205076396059    0.53981518094546    2.25189627170950
O         1.72849194883588    4.81452530712170    1.64377149954674
C         1.52312565806163    5.98781468781187    2.41590205098622
H         0.53278249585175    5.97151785133720    2.87866302117239
H         1.59925299459278    6.82911665857024    1.72913949314305
H         2.28647686966098    6.07023422829850    3.19385147181029
Se        3.13989952002107   -0.15145585715989    4.87934853048538
Se       -0.27469337230331   -0.32594852413872    4.23677541695194
P         1.21797619144779   -0.54696184866022    5.78160977338714
C         0.89485551088597    0.55265313849324    7.19074705482185
C         0.66943945992985    0.08468345523435    8.47578833489217
H         0.68310155493071   -0.97606447213775    8.67067491574522
C         0.42952035367584    0.99644866722549    9.48907391905301
H         0.25272390379540    0.64172488196813   10.49352652774395
C         0.41481568938451    2.35601073540599    9.22169518331308
H         0.22659517311389    3.05863295472101   10.01951827191083
C         0.64037128038866    2.82019482909974    7.93480039584822
H         0.62949706721595    3.87846418048625    7.72364772033205
C         0.88021492517485    1.91454919069259    6.92073438910940
H         1.06112320890561    2.29337662550013    5.88817528068273
O         1.15602833726888   -1.98126834164771    6.49654438168028
C         1.36116530591709   -3.15452539870742    5.72431459275957
H         2.35063333027940   -3.13751771734202    5.25971984947799
H         1.28733331423638   -3.99550945760431    6.41137569876739
H         0.59651125181074   -3.23812943949888    4.94803666264326

