29
CSD_code = PARPEG | q = 0 | S = 0 | Stoichiometry = C6H8Cl2N8O4Pd | MND = 4
Pd       -0.34892023270445   12.85162723491499    2.39597562282743
Cl        0.40506132399761   14.32540478884455    0.82258558603105
N         1.23900007577539   14.64775285610918    5.67045873439152
N         2.11860749089240   13.80259632189467    5.19462507211517
N         1.74185666691867   13.25226216449242    4.07002451229009
N         0.57738977194374   13.74122472875005    3.80232121061828
C         0.26637416968323   14.60390693262103    4.78713837216252
H        -0.64349085818100   15.16831094555453    4.84604873988587
C         3.38244714926014   13.55255355638864    5.80493349355358
H         3.76100789241918   12.59027340167736    5.45350183793517
H         3.26830447452674   13.53324376484919    6.89176121304598
C         4.38226139773142   14.65369063271617    5.43644564732961
O         5.57410041652287   14.38992485152013    5.96138316134756
H         6.21756840801212   15.08027849798218    5.73187764916656
O         4.12340736584770   15.61230000305646    4.77533432158870
Cl       -1.10391611099064   11.37832030162954    3.96917240469002
N        -1.93839261324487   11.05698270007341   -0.87861980402640
N        -2.81788951519682   11.90154379512902   -0.40154111257815
N        -2.44027989889724   12.45147710824465    0.72297863875751
N        -1.27538024809857   11.96279064889022    0.98937867091847
C        -0.96503736855224   11.10060484222806    0.00391105846711
H        -0.05506407302975   10.53648940953724   -0.05602982842973
C        -4.08239931996796   12.15139756295604   -1.01053755868831
H        -4.46080010822517   13.11358730896434   -0.65865892585418
H        -3.96934617079874   12.17078099979952   -2.09749344133537
C        -5.08167327349467   11.05007666399179   -0.64106004485999
O        -6.27427298715058   11.31406761450432   -1.16413455245351
H        -6.91735131869602   10.62350334756709   -0.93414496121986
O        -4.82177250630197   10.09102701511578    0.01906428232288

