111
CSD_code = PARPAC | q = 0 | S = 0 | Stoichiometry = C58H50ClPPd | MND = 7
Pd        7.83392824842035   20.56404721190668    4.56085970726116
P         8.42508042020815   19.22422767840798    2.85322330422126
Cl        6.35478596283908   21.83195896847979    3.32499381964676
C         7.22543959309340   21.39970430467366    6.49256204345535
C         8.60807178656654   21.10886602700226    6.56163877753383
C         8.72465430458324   19.70497915371629    6.40273261841863
C         7.39328151314186   19.10595620529624    6.64090700709727
C         6.48085859300971   20.13312787737250    6.68836459662867
C         6.59709835990799   22.75371287802956    6.67914628144933
H         5.72405645367707   22.85693413243781    6.02910965557868
H         7.31053356880617   23.53218477733454    6.38679810880336
C         6.18885403251720   22.97120452433901    8.11533308203100
C         4.88099002408757   23.30061339338036    8.44168421936175
H         4.14297867847234   23.40205060695812    7.65852785220586
C         4.51169317213725   23.50291132813306    9.75929581473329
H         3.48845892359692   23.75354791777632    9.99725971928903
C         5.44849193517226   23.38033935182308   10.76942265868018
H         5.16087596984878   23.53699529676523   11.79856202210146
C         6.75635666694701   23.05463450286606   10.45389299522573
H         7.49474293080346   22.95828038831792   11.23715643848259
C         7.12295419084449   22.84898070829585    9.13696689071637
H         8.14422874836034   22.58473130196497    8.90081207013175
C         9.77218968516729   22.07150440100859    6.56722522451757
H        10.48643256020978   21.76342275848957    7.33703471541464
H         9.41839388985720   23.07761890607714    6.81044360874585
C        10.44625726667372   22.08676109712315    5.21496209036009
C        11.72696815719910   21.58176846181270    5.03693969828854
H        12.28121413541807   21.21683227834548    5.89134935644419
C        12.30327066228857   21.55104326225831    3.77566165617913
H        13.29918724089183   21.14890261504019    3.65185847876112
C        11.61047833628237   22.03818119408233    2.68129946565661
H        12.05679238830283   22.00991767227598    1.69785506030276
C        10.34626847695984   22.58142331782672    2.85265149828561
H         9.82038431147954   23.00223309898348    2.00900891722730
C         9.75805648880289   22.59970341305664    4.10859115923091
H         8.79551955520492   23.09751226036556    4.24151864129918
C        10.01339071684247   18.95120927885352    6.55252571295486
H        10.74168022588102   19.30284874499567    5.81620449754312
H         9.85419127853590   17.88617652229004    6.35524456822665
C        10.61480923436490   19.10554786944708    7.93029467602328
C         9.83583113386676   19.38498210354139    9.04543624854571
H         8.76811499842066   19.50700631713139    8.93721238520884
C        10.41480142182535   19.52060090855677   10.29500045638657
H         9.79365399445292   19.74286534834665   11.15054506704278
C        11.78221572340677   19.37439860257100   10.44899607152221
H        12.23460940743654   19.48259550214377   11.42357923559222
C        12.56746832683072   19.08905942920803    9.34465393711176
H        13.63589053384309   18.97284753919426    9.45586424651974
C        11.98693612860423   18.95731743224544    8.09640458883204
H        12.60309662507137   18.73470484616708    7.23575095277386
C         7.25706417728054   17.61540157355160    6.84143324425653
H         7.65720545002309   17.11120091037958    5.95316174703833
H         7.89615136840715   17.33949558736451    7.68932225557210
C         5.86418894369452   17.12188244625096    7.10374991472383
C         5.06754785205292   16.66746006013939    6.05969157713201
H         5.46356253477601   16.65391261372455    5.05383401952600
C         3.77321817927024   16.23978407549496    6.29567532428037
H         3.16426414438544   15.89301712110220    5.47288942277325
C         3.26104692590746   16.25385232451204    7.58213601987119
H         2.24812473953436   15.92756461922415    7.76637653004711
C         4.05815188909570   16.67461542249901    8.63251552625919
H         3.67063112791626   16.67696717910102    9.64051827475376
C         5.35358967487067   17.09699076416251    8.39527070038393
H         5.97267406128574   17.41450871237048    9.22102014272434
C         4.99597306647052   20.08747023771220    6.88604705399293
H         4.58466357144562   19.17805837924016    6.43788909066281
H         4.54067793138373   20.93527603111749    6.36455172576125
C         4.56060861475171   20.12782294490189    8.33098040772671
C         3.20336405282912   20.19792463882612    8.62023422990186
H         2.48973624835243   20.23447609590954    7.80883822804603
C         2.75909949812329   20.21934863647699    9.92814946799290
H         1.70009907176779   20.27390050666545   10.13643266450380
C         3.66847200027426   20.17148195752943   10.97120904075612
H         3.32325402615435   20.18972781136005   11.99470254176168
C         5.02098036600851   20.10227186414036   10.69326935163542
H         5.73841929192346   20.06679007049279   11.50062091102822
C         5.46220265339542   20.07837470574206    9.38241170287721
H         6.52084651184269   20.03037051324218    9.17534855473761
C         9.05925354293571   19.82702528188456    1.25765224524035
C        10.05872351541128   19.18090090366281    0.53787165601053
H        10.52618064856297   18.28884421365942    0.93066666026181
C        10.45848044010408   19.68157476588209   -0.68858169712225
H        11.23774943086426   19.17795908125479   -1.24253268762811
C         9.86222355040030   20.81871392373285   -1.20762367875576
H        10.17988719339410   21.20477193831954   -2.16515568849925
C         8.85714894063780   21.45650928376775   -0.49865790116615
H         8.38601158946680   22.34013295881354   -0.90319117953563
C         8.45612627187932   20.96586652066913    0.73007059300283
H         7.67614623427594   21.45986859034367    1.29484724384221
C         6.91991898625205   18.34008727081708    2.33306861272205
C         5.77875616246445   18.46616967658678    3.11944064309492
H         5.81153204410871   19.08075676194215    4.02326121478355
C         4.60591478499912   17.83415921095686    2.74383113702624
H         3.71809209828256   17.94243202678928    3.34930391458338
C         4.57188009334722   17.06898629772839    1.59001503690174
H         3.65601488842827   16.57908024126858    1.29376446052015
C         5.70974546653686   16.93471241201944    0.80894053266042
H         5.67963037955489   16.33838282491377   -0.09129780929646
C         6.88186567687256   17.57028550479331    1.17396658148256
H         7.76880518214696   17.47743762421618    0.56209026067464
C         9.57544779430731   17.89011531362298    3.30222585697471
C         9.14644487949061   16.60178478144314    3.60150143905991
H         8.10342125734218   16.34097276821831    3.48139845813246
C        10.05442095224690   15.65342185479466    4.04067981877629
H         9.71593410891901   14.65382364100924    4.27202972261225
C        11.39205418944188   15.98253802655087    4.18480888312579
H        12.09692959332970   15.23934030114977    4.52676362143639
C        11.82438735710130   17.26753936369256    3.89407089262808
H        12.86719074162929   17.52596811828892    4.00838422330610
C        10.92000257114911   18.22067282857022    3.46625186420945
H        11.24124447972978   19.23264416873532    3.25039350002801

