33
CSD_code = PARSOR | q = 0 | S = 0 | Stoichiometry = C8H20Cl2N2Ni | MND = 4
Ni        1.58093226186292    2.38577660123924   17.31292375247240
Cl        0.76685378132363    0.95157835587600   16.12392311767048
Cl        1.81398887617881    3.61320707746314   18.93907778994575
N         3.74930648608721    1.55687729392138   17.39538480062495
N         2.38722837577752    3.66456981189072   15.76672319521998
C         3.80596896074498    0.10691374375530   17.18976465687272
H         3.34811227811800   -0.39365966270501   18.04116378902092
H         4.84501649806481   -0.23598633359948   17.09522455835642
H         3.24994430933129   -0.16716327671834   16.29553348807483
C         4.46171238188955    1.87121330268917   18.63635846219363
H         3.95450406384301    1.40237619424816   19.47695463768207
H         4.46997830871148    2.94430090506544   18.80728487293641
H         5.49551303112841    1.50207187616663   18.59189682438810
C         4.37876152987363    2.25512709088539   16.26670010172208
H         4.19796391606346    1.67677716173414   15.35946579804910
H         5.46548602035371    2.32530367597468   16.41613579519639
C         3.82257285228754    3.67457300343522   16.07367910703611
H         3.97127891599344    4.24447098106232   16.99294737249819
H         4.38890390834658    4.15296762778800   15.26232334544821
C         2.17755512450253    3.21338526882356   14.38609829596954
H         1.12591391420976    3.29315324701736   14.12951753872873
H         2.45242869619882    2.16787685508008   14.28535467689311
H         2.77544243022382    3.80711335462955   13.68703857556413
C         1.74374578308696    4.98305809424782   16.00222542239027
H         2.10936791525213    5.32593522261359   16.97527635705804
C         0.22915529164931    4.80329110952873   16.11529611476782
H         0.01205687728364    3.90203749417024   16.71928138443332
H        -0.24265177819287    4.68989496220455   15.14225488076660
H        -0.21161198572459    5.65917076998706   16.61854592109925
C         2.08617170960808    6.04595001076371   14.95757204280575
H         3.16174533721553    6.14524555847043   14.83379566711486
H         1.69837292086791    7.00203327392786   15.29872500282911
H         1.63508100784309    5.82615934836465   13.99395265417094

