68
CSD_code = PARYUF | q = 0 | S = 0 | Stoichiometry = C34H27F2NO2PtSi | MND = 4
Pt       -0.26613004099087    3.96531559315882    7.80701896866730
Si        1.64006465045450    7.68210350858751    2.55165897223886
F        -0.23574578413070    5.16738955005476    2.56472004223289
F         2.22578044536640    7.91683340016086    5.45167673809761
O        -0.68624140983462    3.00021946179430    9.65826692112979
O        -1.42356549827372    2.59681961639159    6.88951802586072
N         0.87658218890663    5.34113338986343    8.59237532624029
C         1.13868574666013    5.40352940380877    9.89643797376493
H         0.67430583009514    4.64478754826849   10.51207498296345
C         1.95357434514339    6.37316607680882   10.44868875917266
H         2.13766634946901    6.38475881492613   11.51077165601691
C         2.52280595752428    7.31981516594416    9.60832372019825
H         3.16620902417505    8.09118386729258   10.00258175706726
C         2.25410593401787    7.26189772032333    8.25327726818760
H         2.68817499594124    7.98686723652746    7.58687273297651
C         1.42223639850609    6.26128618064424    7.75369252276963
C         1.04438105682641    6.06213967675063    6.36116939770796
C         0.19450771397913    4.94743606424555    6.14856943995740
C        -0.22112226991418    4.67116586329023    4.85426110429338
H        -0.86985494202064    3.83253081518954    4.65365245086061
C         0.19475487020085    5.47303598612210    3.80744889590604
C         1.02592355850413    6.57308548023221    3.96913181055155
C         1.42714198067966    6.83565689995552    5.26890898868889
C         1.30424600966834    6.92575276113402    0.84826743802346
C         0.11742428870440    7.19314610392798    0.17223043994675
H        -0.62021940239221    7.83546956406044    0.63165476586524
C        -0.13049116312646    6.64866334997242   -1.07390635357222
H        -1.05878479269447    6.86589993178381   -1.58290879800373
C         0.80878108307530    5.82350440260597   -1.66913974760211
H         0.61644374908307    5.39529680620490   -2.64250500964990
C         1.99565609895512    5.54949864322542   -1.01137581765222
H         2.73272702076160    4.90653270337568   -1.47140002939540
C         2.23878801505117    6.09770492797150    0.23481833723077
H         3.17013884706307    5.88352393070884    0.73971385692454
C         3.51405908573530    7.85266895680544    2.78787366927981
C         4.17345170664038    9.05180830719081    2.54154159148545
H         3.60213907632916    9.91595955967745    2.23511979590185
C         5.54440396736656    9.15658528522087    2.69318111400808
H         6.03881372667072   10.09787248050051    2.49876328362985
C         6.28353116598058    8.05741561472228    3.09585899469508
H         7.35465017060703    8.13668002481049    3.21489915800853
C         5.64276639595153    6.85655347980237    3.35045556609787
H         6.21335577754566    5.99584894897709    3.66989969305970
C         4.27203652451821    6.75883570932893    3.19772473122061
H         3.77808193859797    5.81947141402457    3.40687424543925
C         0.76524923973424    9.35817893376319    2.65206719446752
C        -0.00614670316674    9.73652729312859    3.74560628478411
H        -0.13014558015530    9.05301810223081    4.57302990868244
C        -0.62335885036934   10.97416290016286    3.78939743112324
H        -1.21951946821961   11.24904717900296    4.64795764697196
C        -0.47927018943339   11.85924907136775    2.73496447767784
H        -0.96001273437771   12.82640363617806    2.76775231885766
C         0.28029910963525   11.49689207685155    1.63473485603020
H         0.39217700323488   12.18141317684436    0.80575564278167
C         0.89280162146357   10.25813553790981    1.59664923449512
H         1.47404134823166    9.97539631066963    0.72988426375039
C        -1.41554097893842    1.98432400967174    9.80116348554251
C        -2.08476745937345    1.30076374921434    8.78216237057922
H        -2.67594345930232    0.44338055641048    9.06482197995247
C        -2.05116343112192    1.63800915813524    7.43048621675687
C        -1.58739376173434    1.45243953189073   11.20854532704171
H        -1.28740190336788    0.40804441808797   11.25281329104613
H        -0.98246622434651    2.03084289932595   11.90172862056562
H        -2.63233806518596    1.51968074692423   11.50294187347090
C        -2.85315886514886    0.76646691740404    6.48728333372989
H        -3.90742831561330    0.80451994120247    6.75252003611297
H        -2.72621825531911    1.11799259126531    5.46724532556607
H        -2.52093446851636   -0.26653896401446    6.55824949951496

