44
CSD_code = PASCAO | q = 1 | S = 0 | Stoichiometry = C17H18N3NiO5(1+) | MND = 6
Ni        5.88147590679086    1.14295497074571    6.17384506825729
O         5.12783800341342   -0.56886779741536    6.58604880099183
O         6.63581928994051   -0.24108031251016    5.09495104019595
O         7.60547802014205    0.89374603002650    7.84677066820853
O         4.15014782538304    1.55986658525813    4.51281601530802
O         6.08272387454018   -6.53609662996229    4.59502513556939
N         4.87163783753453    2.21046205425079    7.38472231400108
N         6.82672071895117    2.62793523863827    5.44221615104296
N         5.32961556943712    4.24429341348605    6.28310612871867
C         4.65609855258128    3.52094533538986    7.23400749453645
C         3.74745708403782    4.21624059003000    8.04823679642652
C         3.08114966925159    3.54659256296209    9.04687617797887
C         3.33751201664872    2.18987799158422    9.22092712990787
C         4.22688619744702    1.57070521555092    8.37126442907854
C         6.39913605973436    3.89296449120399    5.49913504677903
C         7.03133878833720    4.91748704509397    4.77633619620289
C         8.13635774249923    4.62640531294246    4.01209278741438
C         8.59756885945519    3.31372160885868    3.98644515932607
C         7.91424814977096    2.35842894889352    4.70546111279114
C         5.93012609044045   -2.50264077805048    5.42476606931704
C         5.09702305594996   -3.37730048520887    6.12317535564376
C         5.13426816595144   -4.72804302864653    5.85855775086894
C         6.00653355838899   -5.22835428753441    4.88975903305726
C         6.84064638855709   -4.35169708630969    4.18815891090660
C         6.80136524314654   -3.00434576230363    4.45365654802906
C         5.89537751290554   -1.07324554211705    5.70729649598024
H         8.23510136116112    1.32622906852796    4.68286969207183
H         6.64645682856108    5.92363474459197    4.83330857503817
H         2.84873503091797    1.62551038681342    9.99699040512757
H         4.42596790062111   -2.98014351919958    6.86978306324634
H         4.42561970104946    0.51222007063984    8.46690042298258
H         7.43939569906797   -2.31780716794479    3.91833754504690
H         7.50457229706474   -4.76103227270096    3.44433862220738
H         3.58666990159906    5.27038880115025    7.88513945800849
H         2.38038102133208    4.06412470347425    9.68254325752516
H         4.48896661440368   -5.40672001990867    6.39913102393798
H         8.63519181109578    5.40024575623568    3.45052454064013
H         9.46609549771630    3.03928845837274    3.41198639842608
H         5.06383244407442    5.21863566923885    6.22483973210583
H         3.40808548380373    0.99360722536792    4.74958227889294
H         4.49605157771563    1.23049510874547    3.67656864811865
H         7.31262198236358    0.29554334455091    8.54095701444215
H         8.38906635094246    0.50126324716974    7.45003429178559
H         5.46863831527270   -7.05473928998099    5.13111121385612

