71
CSD_code = PASGAS | q = 1 | S = 0 | Stoichiometry = C35H29ClN4PRu(1+) | MND = 6
Ru        9.84864882049979    3.48376166814915   15.59719903703371
Cl        9.84006445974621    2.36620011690961   13.50851857811372
P         9.78179480605885    4.44069866726837   17.72977524731293
N        11.85187841936502    3.59049676366601   15.38870302678837
N        10.29104467384260    1.79731296587836   16.30098654350764
N         7.97334722204236    2.77902689925394   15.88410188677184
N         9.41206375575579    5.07195800560545   14.53049267796248
C        12.58199222120913    4.53261532807155   14.79957928541443
C        13.95372440299825    4.44561640809533   14.65214108211565
C        14.60951009204497    3.32516555093657   15.14290481376428
C        13.85633943369321    2.32332846610795   15.72509389020236
C        12.47408013691729    2.46803340201943   15.82255558466699
C        11.57910685982167    1.42391730453585   16.31958438941690
C        11.93095511596004    0.13534873923785   16.71178540078957
C        10.92484969734631   -0.75973461012634   17.04486441069060
C         9.59647641243080   -0.37367676218660   16.95181762691512
C         9.30312714439204    0.93085490876219   16.56427337126523
C         7.97657081726448    1.50736058714074   16.35051226562340
C         6.78814257561909    0.81714982242861   16.57693416159654
C         5.57955870633667    1.42982474191036   16.30569191372975
C         5.59053183544903    2.72520287760278   15.80692237626160
C         6.80634750015548    3.35455997648456   15.61421095171367
C         9.20912925595522    5.67119256096343   13.56670306719252
C         8.94835903660261    6.44311647890192   12.39351941201033
C        11.37437613076319    4.96827114573118   18.43938002723281
C        12.08660009088433    5.86952061122222   17.64959506213711
C        13.30360110765515    6.36353951080442   18.07539387788691
C        13.81626200064874    5.96589429076548   19.30087928570138
C        13.09755199489434    5.09560262425941   20.10285027927772
C        11.87565772840654    4.59793405968404   19.68128212168229
C         9.10525609803067    3.19041511318908   18.86627909453581
C         9.88810252138814    2.11179529884296   19.27496568176602
C         9.33207199504027    1.09273070583097   20.02662901332851
C         7.98667319021002    1.12636342918019   20.35597223895107
C         7.19717202317928    2.18330280128903   19.93271549655221
C         7.75021741273693    3.20947226194948   19.18874606354330
C         8.77862859091332    5.90445765994480   18.13733729914283
C         8.74380296166660    6.35068265026822   19.45726752981885
C         7.99970249714337    7.46673768775781   19.78656484457786
C         7.29172822797169    8.14598169880764   18.80583320628481
C         7.32965275459818    7.70807240086603   17.49293603483592
C         8.07303848739758    6.58911333413285   17.15716235415311
H        12.03983616372126    5.39231618933710   14.42361936175985
H        14.49505722055217    5.23750519143483   14.16103116859866
H        15.67993581043446    3.22786742302584   15.05676263520924
H        14.33085707549892    1.42801684126305   16.09165982921136
H        12.96302057262671   -0.17205311761079   16.73781207570879
H        11.17548700073231   -1.76398938843634   17.34702508839836
H         8.80916090920017   -1.07753105301011   17.16246203552665
H         6.81632421031650   -0.19116820718689   16.95524819567731
H         4.65027591345691    0.90812062522866   16.47030980616999
H         4.67346546988817    3.23810837378589   15.56739610551673
H         6.84985573944882    4.36478523263738   15.22578907790703
H         9.61367734744256    7.30554352060702   12.35185692068054
H         9.11817027316364    5.81615539545660   11.51749646189594
H         7.91354591350581    6.78589655365843   12.38941093888062
H        11.65564373244338    6.18585300801741   16.70691405535586
H        13.85138389340000    7.06065001862553   17.45940363037423
H        14.76934783186697    6.34492993525198   19.63608506304851
H        13.48642192112128    4.80477040206572   21.06709509221047
H        11.31725122041523    3.93452436361450   20.32551700915871
H        10.93585673204215    2.07264934496246   19.00331055338097
H         9.94912581076689    0.26821717734896   20.35131809744186
H         7.55444579088661    0.32931990555795   20.94100823819753
H         6.14748347638189    2.20891269526646   20.18327942837995
H         7.13275984408126    4.03346794518458   18.85704719203658
H         9.29868989651537    5.81907105225588   20.21779077088223
H         7.97177052109115    7.81120222009545   20.80909656261970
H         6.71294182349459    9.01851386766612   19.06700459461387
H         6.78063514803385    8.23991580994789   16.73027683209417
H         8.11793352208181    6.24151052171635   16.13391266699071

