45
CSD_code = PASGEV | q = 1 | S = 0 | Stoichiometry = C13H26BrN2NiS2(1+) | MND = 5
Ni        3.77159837624216    9.20213725525534    0.32453335379377
S         5.18666466212842    7.49669975269862    0.29167747891832
S         4.76833846400673    9.92047084516127    2.16993609513399
Br        2.00860637399898    7.95193846676606    1.54246667092739
N         3.22430669932636    8.82400601469853   -1.64540391838441
N         2.83916635459629   11.04315936027218    0.07633895097502
C         5.04957002402596    7.13373164328312   -1.49626938952449
C         3.62514810607298    7.43203348878470   -1.92943882324437
C         3.92569151910196    9.78914043770063   -2.52161821845033
C         4.57046705265718   10.93011555050039   -1.72497115227137
C         3.57534324815966   11.80762606501518   -0.95560445211566
C         1.75951881385358    8.89512230401142   -1.83145620370261
C         1.15341231480059   10.28324918486485   -1.65530706203577
C         1.41285053894655   10.89280833668202   -0.28181763327174
C         2.88244524658539   11.71254050280818    1.39126482656368
C         4.26275522306282   11.67258101780101    2.02277103752740
C         6.57374061515568   10.07552690136508    1.91790125564183
C         7.22314228980450    8.71093535353780    1.72947968123054
C         6.91801458880344    8.08203688629503    0.37646209945200
H         5.27444135324929    6.07736728988318   -1.64340184425335
H         5.78914363016709    7.73437485726552   -2.02442052144302
H         3.50757062167044    7.20927669736998   -2.99880086439130
H         2.95385672400847    6.77378427583616   -1.36975968556584
H         3.23524664251401   10.19824133310939   -3.26181968774681
H         4.71440210400100    9.27491356496351   -3.07584705950803
H         5.13005788790608   11.56331637549958   -2.41587236842707
H         5.28997884838819   10.49958536949758   -1.00919055166348
H         4.13403145685560   12.61838924505720   -0.48213713760873
H         2.87521032208006   12.27214874754048   -1.65273766797248
H         1.30136036436963    8.22579799280642   -1.09839063985114
H         1.50749917888264    8.53082838874975   -2.83572629867287
H         1.46913404039878   10.95633189882692   -2.45238262699997
H         0.07286700307046   10.17123617368166   -1.75266270435400
H         0.92726846001841   11.87632971802663   -0.24083749247846
H         0.94991072315105   10.24967360053694    0.47140318291961
H         2.18932351689383   11.18528144411104    2.05366923252257
H         2.54404800276966   12.75402568259612    1.30316706930923
H         5.01494729058596   12.19691928018088    1.43461574501706
H         4.23048219567296   12.09890244436094    3.02542683341214
H         6.96006939043260   10.55023511247394    2.81996473620076
H         6.76487046290883   10.72538585944563    1.06182290156495
H         8.30573405194487    8.83106551202231    1.81567547524152
H         6.89999704047676    8.03826154121378    2.52739101367888
H         7.10140377092813    8.78687382645306   -0.43673521441717
H         7.53786440532607    7.19749440099048    0.22904157832348

