61
CSD_code = PASHGB | q = 0 | S = 0 | Stoichiometry = C54As4Br2Hg | MND = 4
As        3.75065369474130   -2.10809657345396    2.80360837923663
As        3.97102102654552    0.66634039345198    4.59738410512184
As        7.36634468390721   -0.60553299105539    1.61907381608636
As        1.63048208437948   -2.52089349160594    0.30374639221760
Br        4.60100997605016   -0.98395527813456    0.17436260737990
Br        9.95114317087913    1.63977338951597    1.43687157153237
C         3.51287758649169   -2.13014073530050    4.71593818324533
C         0.95036983605442   -5.53782843879301    2.97373881490653
C         1.58661659369810   -5.24970570128900    4.06371159596186
C         2.46637416470160   -4.20996498688119    4.05232596160417
C         5.59209815471153   -2.78539687356112    2.81383951704863
C         6.83574151523722   -2.18949029421353    2.65677552711014
C         7.98538602177341   -2.84761923258219    3.18671501054683
C         7.76345101942039   -4.07536440194619    3.75552631809794
C         6.54751845086506   -4.49374353875182    3.78276387940135
C         5.35087771577918   -4.03270610611697    3.44301504086350
C         2.47855942068680    0.30599077262889    3.38833690522258
C         3.66889185860318   -1.03867827153712    5.55856600848876
C         1.37907831211552    1.18491155580717    3.59210219808570
C         0.39613502691850    0.85210018427595    2.70268766426077
C         0.40187005364979   -0.09433599870938    1.85193970761286
C         1.33032447437897   -1.07377242193982    1.65373243666677
C         2.43600921412076   -0.73431671015414    2.47995132153551
C         2.73045044684502    1.87107967489952    5.49158115615416
C         1.48844630364761    2.06923032214728    4.72847372855002
C         0.58901991421178    2.96488333636928    5.21516930982476
C         0.88515350791392    3.60557721815186    6.32077140114978
C         1.99294309506274    3.41290999680050    6.95415481617932
C         3.43660373226346   -1.17743552600553    6.92426464672310
C         2.96397406468021    2.59047702648280    6.62075796127327
C         8.01803532839978   -1.65772409964061    0.08247708687639
C         9.16882319579451   -1.14574422204139   -0.46992167218975
C         9.75568654289060   -1.80563554820151   -1.45525460690606
C         9.22801298676191   -2.90416333279912   -1.88756032340640
C         8.13567921674287   -3.50603757524108   -1.46523411376682
C         7.48836224304194   -2.87677894816239   -0.43430768029863
C         9.13465004810049   -0.85428557739184    2.46253183989693
C         9.23286403457743   -2.09699173638697    3.11330363751506
C        10.47916541096339   -2.36274326733039    3.60391605284547
C         3.06532987205458   -2.40345148656846    7.22150320527488
C        11.46340339053284   -1.53696298317732    3.47689334061401
C        11.43553236347361   -0.37239604992611    2.88052264554233
C        10.22271403540731    0.00877615219325    2.34277060607484
C        -0.13128017643267   -3.04298216237300   -0.28067437269290
C        -1.27556067459148   -2.39247482812787    0.07431874840907
C        -2.36025258282200   -2.91700410068311   -0.45363530677108
C        -2.45806740841854   -3.92332444268843   -1.25866350679648
C        -1.39180019055117   -4.58895037636045   -1.63128687007697
C        -0.16620302710362   -4.19287270138917   -1.18567498600783
C         2.31151921590627   -4.29790736749009   -1.00713846268275
C         2.81604115214878   -3.44641537281229    6.50183096890120
C         1.10762939461126   -4.79607219417202   -1.49921260282211
C         1.48674395339162   -5.88802596121916   -2.22187523121875
C         2.47858717674698   -6.67625156370382   -2.65334396759279
C         3.30025271930560   -5.86822890795056   -1.98165115015527
C         3.58311330933435   -4.80654220449174   -1.17832547804614
C         2.99223004676291   -3.37866680334381    5.14840833886739
C         2.61141695682154   -3.62038502954797    2.75450239051032
C         1.76916731486968   -3.90059182259112    1.69341132358721
C         0.85353763393629   -4.95004099149829    1.80728331482193
Hg        5.44514139704170   -3.76992079334726   -0.39099915038525

