61
CSD_code = PASJIF | q = 0 | S = 0 | Stoichiometry = C16H32Cl2N2O8Pt | MND = 6
Pt        4.77538047156474    9.89999098736432    7.39191405940085
Cl        4.23828124631210    8.29546664028748    5.84651613313936
Cl        5.48169821753389   11.27365252374900    5.68978100706266
O         6.66855940462740    9.06744198310189    7.38975839124927
O         6.71172728335382    8.30359759277975    9.48163605519419
O         9.25950366659522    9.59597257622844   10.44028281833323
O         8.92373925814352    7.74811442985459   11.65609631154326
O         2.87261119326268   10.70527979511797    7.20164638250881
O         2.71260041572275   11.21042404638565    9.35514841476814
O         0.42551106082254    9.85174310678499   10.39648810347216
O         0.67479399497742   11.77196217165061   11.52066096728584
N         5.34775009068455   11.54473627290014    8.70444060136146
H         5.36664711797794   12.34094121419778    8.06050918598345
H         4.51977861748759   11.64648534657802    9.30872881614344
N         4.06583271781255    8.68034056420532    9.03527550476295
H         4.96348601018265    8.47964366763751    9.51414075328775
H         3.49695302191666    9.29495555314984    9.62405210574796
C         7.21865367387858    8.49095656111056    8.37768548917385
C         8.65622447576957    8.05177576302945    8.09916563100522
H         9.20994807445279    8.94086947695850    7.79448539064351
H         8.65048980607965    7.34932497549993    7.26608175723667
C         9.27140116815126    7.43733337641082    9.35039078220612
H         8.77520788113107    6.50640660417376    9.62171130028367
H        10.33209323696813    7.23931254998513    9.18447113014816
C         9.14278500468861    8.39951830470662   10.51274768207342
C         8.77767408833846    8.55082468722347   12.81860550983921
H         9.63236918916499    9.22196532037476   12.92697527257858
H         8.71925350321990    7.86449112372452   13.65924529139620
H         7.86634207159508    9.14792855381775   12.74809710686598
C         2.23363807644718   11.09786605652919    8.22295874334507
C         0.76141677387601   11.40541597827333    7.97535728214360
H         0.29139110236430   10.46287342487944    7.68766719394766
H         0.67375876595655   12.09783349678033    7.13886197374981
C         0.12107985360315   11.95812677055302    9.24354462571487
H         0.48885839020160   12.95766269604890    9.47270335874270
H        -0.96339174237809   11.99680437365508    9.12594931894718
C         0.43912865397874   11.05620258774028   10.41960736764222
C         0.98803032275555   11.03973213125860   12.69644074318285
H         0.26829837242631   10.23195842225076   12.84447058796190
H         0.94659142670771   11.74792989070998   13.51995732974433
H         1.98929921743136   10.61229572680931   12.61261809117837
C         6.58579504857574   11.56001194839295    9.50217893947241
H         6.71936824101576   10.57125368210474    9.94987507132944
C         6.46102686668598   12.58834942867125   10.62530827909027
H         6.32468360738702   13.58779525791818   10.21649543810763
H         7.36769892733147   12.58074948074610   11.22300062450450
H         5.61734874999739   12.35733655188477   11.27288451557942
C         7.77070900762879   11.87236986097189    8.59836066359814
H         7.71327220164648   11.28132739604192    7.68720533736384
H         8.69488126392882   11.62844780078699    9.11311043019588
H         7.77754233130630   12.92581921873252    8.32573680862781
C         3.34349726877693    7.41171323641118    8.84476946265103
H         3.90423651566448    6.82166049910118    8.11213788878749
C         3.30306884043646    6.66717532733593   10.17934680702840
H         4.30887743849328    6.51497883972370   10.56571844404422
H         2.83404936505526    5.69656768814870   10.04768272723740
H         2.72275128713076    7.23251602780780   10.90605442501782
C         1.93853671675638    7.67624719646518    8.32307751501663
H         1.37415431767225    8.27387604537541    9.03673570115876
H         1.41828095873620    6.73525647844382    8.17031015179483
H         1.98642586997783    8.19759071045441    7.37013619841340

