65
CSD_code = PASKID | q = 1 | S = 0 | Stoichiometry = C30H31FeOP2(1+) | MND = 8
Fe        2.19571221276840    1.23085416108958    2.03384810543543
P         2.84240353081370    1.79723711213622    4.02937950668734
P         2.81429047888944    3.10709675957466    1.11620127549770
O        -0.40593137993717    2.42008066816534    2.39406655360756
C         0.63993414478093    1.97549346566749    2.28916135560192
C         3.55205391041861   -0.44284457881260    1.82794813445732
C         2.32362835674019   -0.87396600823877    2.40858072193600
C         1.29454580831489   -0.63419639678575    1.47423391965700
C         1.86826100482008   -0.01585509555623    0.33842627260886
C         3.27278228316247    0.06707054115036    0.55086493210807
C         1.92005194392155    1.05117833481448    5.41003429784888
C         2.40464617766820    1.16234008159217    6.71047136494259
C         1.68684518427344    0.61414912838761    7.75673492654660
C         0.48868016021477   -0.04000327979457    7.51291197441494
C         0.00386002806215   -0.14470389331737    6.21948331971730
C         0.71759409138920    0.39944472448483    5.16610808520790
C         4.57446727123590    1.61240239243699    4.45873533539897
C         5.11826171419645    2.79677519375216    4.80303253651437
C         6.53663336554145    3.00412668443895    5.19583210053924
C         4.16202115950462    3.91078803119519    4.78937163218558
C         4.58365189950721    5.29247314452735    5.14024380248052
C         2.91269546506352    3.54355108649561    4.44190375399704
C         4.51884825367151    3.68609934302359    1.39014840879550
C         4.82813407861820    5.04210516312656    1.38523576799240
C         6.14089183008605    5.44485148101446    1.55298184560122
C         7.14486286758578    4.50382591552904    1.72014115933721
C         6.83624967732730    3.15282601270911    1.72438052706517
C         5.52513614119035    2.74347168947178    1.56435371412692
C         2.62750254684673    3.15710386611463   -0.67046103502010
C         1.78227383505250    4.13899523060487   -1.03940583934770
C         1.37813689649186    4.43650239632214   -2.43825329989986
C         1.27492407758547    4.93355797082362    0.08701609619580
C         0.31943503468436    6.05144014029523   -0.12712783787414
C         1.76682051093686    4.55304809262869    1.28289567916955
H         4.53008087411273   -0.61732614105179    2.24284367930221
H         2.22784689770478   -1.41444341383303    3.33626320269813
H         0.26333684948095   -0.92688521909689    1.57701519016418
H         1.35815278862018    0.20229084311983   -0.58437015093119
H         4.00069085770003    0.38456966544153   -0.17763314507584
H         3.33845265439129    1.67528822085377    6.89243289763501
H         2.06177619790316    0.69698454669578    8.76542761518945
H        -0.06745123770416   -0.46759392205591    8.33271370385493
H        -0.93062787395127   -0.65079507797314    6.03078919037328
H         0.34910000126066    0.32408573574593    4.15190220168146
H         5.10506674956420    0.67594928035302    4.41975355571168
H         7.09597605699272    2.07473044000377    5.13598905383812
H         7.00354760714501    3.74150431159178    4.54441122330561
H         6.59418046039410    3.38066931327846    6.21642288730797
H         4.99731333797197    5.32069642807660    6.14714546931665
H         5.35802622761534    5.63226125445885    4.45327199203536
H         3.74261303977594    5.97809104618015    5.08923805767241
H         2.05515390103335    4.19554795122384    4.41016504707180
H         4.04408598302458    5.77231342848196    1.24913652032434
H         6.38257480294149    6.49715329877214    1.54791046021271
H         8.16828085830003    4.82386603934521    1.84474486277153
H         7.61843131639479    2.41976623443491    1.85193071996118
H         5.27524036536659    1.69306313138390    1.57275628418283
H         3.11787002605338    2.47717158204272   -1.34637726337805
H         0.29752715401969    4.35182116502321   -2.54522105616347
H         1.65600458342872    5.45558712205219   -2.70351777526713
H         1.85526615951430    3.75226865557607   -3.13424457383728
H         0.06699045468846    6.53187895591247    0.81397839107223
H         0.74657412444055    6.79427669111682   -0.79935730815572
H        -0.59551696518830    5.67979998857576   -0.58649125738977
H         1.50803118556952    5.00798888519583    2.22459123097834

