61
CSD_code = PASKUP | q = 1 | S = 0 | Stoichiometry = C28H29FeOP2(1+) | MND = 8
Fe       -1.20132881281669    1.89849872426094    6.87522517276498
P         0.42262403010160    3.22801381989609    7.32146713129315
P        -2.46286944495662    3.49223123087518    7.63244821913009
O        -1.14451279299881    2.73146376833230    4.11878787389504
C         2.10318285499612    2.64334197720458    7.58562119372255
C         2.68108870288279    2.54991410580552    8.84642885145786
C         3.97224485115728    2.06749745086829    8.96673962087600
C         4.67427880555935    1.66906158275591    7.83979005398173
C         4.08869861058595    1.74250761784609    6.58431311403184
C         2.79913838529116    2.22226468662141    6.45462922595040
C        -4.49884335515105    3.02687851351116    9.44846227290413
C        -3.20996772360780    3.27559475787238    9.26358443962243
C        -3.83358447334607    4.08378963618228    6.61137513560480
C        -4.26722517154666    3.27616614148279    5.56500258089370
C        -5.33460079261887    3.67602919098817    4.78112988178300
C        -5.96759861904096    4.88120794189160    5.04080326004925
C        -5.54074840333586    5.68469321643463    6.08779920972224
C        -4.47845665280117    5.28913106854776    6.87902056125982
C         1.02710117533426    5.42022927089278    8.62929935189071
C         1.47591118133704    6.06980867807141    9.89111940527009
C         1.44475539346397    5.62312533404033    7.37395680903421
C         2.49367620741782    6.54124042049333    6.85950979777658
C         0.59501544564207    4.82889212339224    6.40310656528549
C        -0.83571541619830    5.39429020446470    6.52387651359686
C        -1.33950299883276    4.95095090574145    7.91135332953695
C        -0.09213564574831    4.40831281909962    8.65604611406185
C        -0.39237795836137   -0.05072405679490    6.62636028123246
C        -1.77017542493879   -0.08564015017399    6.28569704660617
C        -2.51061472549959    0.30108339154162    7.41956051834515
C        -1.58945988550080    0.54616398289344    8.48153590780461
C        -0.29210404792491    0.30073399932400    7.99760308458861
C        -1.19957771439581    2.45711809725925    5.22565600633566
H         2.12403402859413    2.85759950576877    9.71971142333459
H         4.43241296793738    2.00039930531970    9.94077889661036
H         5.68109988609016    1.29441145793320    7.94052413016241
H         4.63850897250130    1.42421028125743    5.71187214611616
H         2.31694286388115    2.28108650065347    5.48682835165932
H        -2.52166782054070    3.31560572600594   10.10020724577683
H        -3.75719658770769    2.33912796280808    5.37987269090413
H        -5.67233239885409    3.05094865710302    3.96893759322869
H        -6.79805659528545    5.19541177029318    4.42785836661792
H        -6.04027513267658    6.62006144858401    6.28848251704694
H        -4.15108014331751    5.90673083367650    7.70327205119972
H         0.66889378415032    6.67160886440775   10.30988318885217
H         0.97137614252456    4.79606014850658    5.38144547839642
H         1.74913708391193    5.32103547074326   10.63364592111680
H         3.22594100720601    5.97916376713014    6.28051498556689
H         2.33211002404265    6.71404354534174    9.71954095918428
H        -0.81323460357863    6.48129442316044    6.43161167110705
H         3.00685680168954    7.05384955688696    7.66679683795443
H        -1.48405952650776    5.00592857065661    5.73118051237705
H        -1.83457860014372    5.75267011292903    8.46729365662950
H         2.05119701131136    7.28629528247531    6.19867747791410
H        -0.32097902347027    4.00320823722318    9.64219271060917
H         0.41936645007385   -0.38851374750707    6.00476392867468
H        -2.17607457383252   -0.41621038482745    5.34410863964967
H        -3.58414281948119    0.29632927767062    7.51315995075817
H        -1.85881886076194    0.72674124053814    9.50790037900560
H         0.61622157365498    0.31298828361669    8.57726439288931
H        -5.18934312597429    2.97053875845317    8.62175588001845
H        -4.91597436958724    2.88230469156746   10.43180948631889

