53
CSD_code = PASLON | q = 0 | S = 0 | Stoichiometry = C21H20ClF2N3O3PtS2 | MND = 4
Pt       10.30577923983816    4.21755066449540    3.17159685236073
Cl       12.29057337829599    4.13005615524419    2.06237761977237
S        12.16228288345098    2.73548880769050    5.08737888575444
S         9.39975715094140    4.24863535383083    1.09589813487673
O        13.55133918691559    2.94631565944596    5.35983616055971
O        11.77847009426352    1.92107715433052    3.97173930030916
O         7.94898399025492    4.36169192842413    0.93824428785402
N         8.67133174134440    4.53257958756955    4.28019418411526
N         8.64413386198938    5.15445325042433    5.39107060724875
N        11.30239177505019    4.16013091190705    4.91617472810741
F         8.31493732647113    2.14872842804613    3.00480290412247
F         6.37359677083929    6.17660752922334    4.50689552161644
C         7.41166770592910    4.17307357561869    3.79245139994546
C         7.23535692837350    2.95253990668693    3.13601719588854
C         6.01773665099881    2.53103959263672    2.64985160140030
H         5.94710924978419    1.57550509277201    2.15707199337582
C         4.91744682626621    3.36028568453691    2.78970342261472
H         3.96029250852993    3.05269887227347    2.40090451655430
C         5.04472043797637    4.58632169946821    3.41802862697503
H         4.20428299211073    5.25327867857739    3.52434008517737
C         6.27213477777552    4.97623369436737    3.91758472481068
C         9.70206204833584    5.48879285870326    6.13158888010852
C         9.43746128701217    6.30937034974655    7.25186129807250
H         8.45158225940473    6.74076135309822    7.32382600997470
C        10.39685139993134    6.54640282221008    8.19473823145914
H        10.18805654473748    7.18513324512883    9.03866726465682
C        11.65895496844275    5.94533834448174    8.07221149451921
H        12.40857783391925    6.12529772232353    8.82819017371764
C        11.95685050416999    5.14519877256033    7.00140650717097
H        12.93151270445257    4.69947119647645    6.88052181097927
C        11.01876173304318    4.92897341858941    5.97278509280976
C        11.35036562995879    2.10053187032015    6.55059923599645
C        12.00200848569568    2.00409534628877    7.76248978469821
H        13.05341994636238    2.23831119187209    7.81227143121777
C        11.29267660290054    1.60109251884088    8.88208573061744
H        11.79640076230066    1.52303235694354    9.83422688444100
C         9.93824623757189    1.30196185974482    8.79507505356142
C         9.30364859132967    1.39704855758849    7.55838492518572
H         8.25295949752831    1.15902041932130    7.48011330961369
C        10.00651703072265    1.79551318848919    6.43787107532439
H         9.53860798834583    1.86630530213120    5.46712337606223
C         9.16649829549750    0.86338864287268   10.00093073792108
H         9.72016064522978    1.06430966171105   10.91392431005229
H         8.97094630962019   -0.20738379756810    9.94720772748861
H         8.20720146183188    1.37436283086520   10.04861699662858
C        10.12821961684826    5.53342093720802    0.04126331340955
H         9.78718866983211    6.49520292004706    0.40917046092960
H         9.78585687936352    5.38088633087481   -0.97548207125846
H        11.20539964699469    5.44673285357550    0.13060969145436
C         9.92922653035449    2.78742555495445    0.16426926265194
H         9.60790375025535    1.90729918172296    0.71073353815346
H        11.01115601801469    2.81757889416430    0.11323505961721
H         9.46899464260933    2.81693106715963   -0.81657935067675

