87
CSD_code = PASMOL | q = 1 | S = 0 | Stoichiometry = C29H54NP2Pt(1+) | MND = 4
Pt        5.30142784782480    3.88479898902701    2.60112871937164
P         4.74736285657044    5.43361113001127    0.96119971150427
P         6.27248470905791    2.39143774148417    4.06467831064293
N         2.77654830070128    2.36608446644803    2.69949741388127
C         3.33549605926969    3.53767181999634    3.25736308440171
C         2.51429507321797    4.25354528112238    4.03408713437767
C         2.83101986344699    5.48527139620208    4.83447404510900
C         2.18716992331686    6.69865937687458    4.15012464497936
C         4.33288117971807    5.70815715700657    4.98980672375689
C         2.20123122384686    5.31049577527504    6.22474744961760
C         2.07394159339838    1.50894205201977    3.46607538031090
C         1.56412836650516    0.33453923821583    2.95651509600487
C         1.76224998796006    0.02139439269854    1.61957967969993
C         2.48741795302888    0.91479236883295    0.83769487228457
C         2.98405191641119    2.06372163265864    1.40339937784276
C         5.61792003218916    5.17410625392692   -0.64000632855988
C         5.54309835385918    3.72716331896110   -1.10942466690873
C         5.21722975057617    7.16751983689616    1.36877411446086
C         6.62367651850663    7.27870878806051    1.94319767654463
C         2.97374746902514    5.58204283970219    0.42639245131970
C         2.59976406440996    6.86725826058350   -0.30141066868817
C         5.19580786889893    1.66117817063785    5.38483224774947
C         5.90802280203706    0.87585105288492    6.47795618800557
C         6.91242329519403    0.92082582152510    3.16319076309937
C         5.89907201249550    0.40639324448662    2.14982976226885
C         7.79966383012643    2.93942709678608    4.92570302571450
C         7.59867678933130    4.19955770309347    5.75565355260282
C         7.18291927319231    4.07254047833327    1.94667843909569
C         8.32677602311128    4.12231785416324    1.56810943000045
C         9.71286867509657    4.20931851047072    1.10975108057391
C         9.74217189228543    4.82228700139096   -0.29529405314300
C        10.50297930086351    5.09298046271984    2.08206447442206
C        10.31462639947331    2.79924341201546    1.07333511170153
H         1.45896644843706    3.97884342926285    4.08572215824454
H         1.94787039286160    1.78092005253124    4.50276624060091
H         1.01623343953438   -0.32833424628496    3.60648714019025
H         1.37487904881998   -0.89246357520509    1.20116835375521
H         2.67225752449273    0.71379110835242   -0.20482322356603
H         3.57749483430259    2.77686323305098    0.84327816169170
H         2.32904102551488    7.58938197350709    4.75687231399806
H         2.63852736128362    6.86777996298128    3.17506474359993
H         1.11872894196259    6.54539107800447    4.01373210147772
H         4.76601873884106    4.92258806889632    5.60506688350586
H         4.82786327308143    5.71073108348434    4.01085266508465
H         4.52597747825982    6.66290950724098    5.47231557902889
H         2.60091379399093    4.42876368401863    6.72271349822506
H         2.41862812530739    6.17797023852537    6.84229240885177
H         1.12084900999432    5.20612585159732    6.15313562656090
H         6.66294920461904    5.44076047061666   -0.47397649986396
H         5.19777828036862    5.85016844781359   -1.38911017280360
H         5.93636211939149    3.07103321851191   -0.33118191621485
H         4.52133761578849    3.43491150126267   -1.34842303698527
H         6.14579944597874    3.58946883269274   -2.00391896627051
H         5.13431482566006    7.76433202219388    0.45639007827136
H         4.49445156696487    7.54784098289196    2.09546645572205
H         6.74024585630941    6.63335392824130    2.81318125379403
H         7.36914997986649    6.98110552399146    1.21092450097661
H         6.82435303092402    8.30528298304443    2.24141645149075
H         2.77187379801990    4.72762033168333   -0.22748425954773
H         2.34718789349005    5.46497757826398    1.31471154302491
H         3.23985591926909    7.03966525020058   -1.16329227802095
H         2.66274595542914    7.72937173711323    0.35681559783616
H         1.57438057623292    6.79449209574400   -0.65834080028168
H         4.48289484953473    1.01058932064481    4.86723885584711
H         4.62242972373465    2.47982765833303    5.82805957820994
H         6.53778248103455    0.09295842993370    6.06174421000562
H         6.52296508802704    1.52606887632877    7.09410005559513
H         5.17215056640569    0.40225676228041    7.12502721058202
H         7.18951839062286    0.13875328923510    3.87363330991812
H         7.81312329996272    1.24985325912910    2.63986694679830
H         6.32534690599984   -0.39585995698925    1.55214245596159
H         5.61585992637523    1.22060206309582    1.47920216930692
H         5.00451542866954    0.02371782056333    2.64014580976495
H         8.52445999475359    3.14050710713019    4.13299508636218
H         8.17263084724735    2.11413565016819    5.53739136750025
H         8.53868256876365    4.50478063266320    6.20955235871394
H         7.24937788345727    5.00886608679442    5.11662197665917
H         6.87416345386338    4.04156094598515    6.55205155859605
H        10.76543663109930    4.87219871746188   -0.66049577526512
H         9.15675990668978    4.21990529139565   -0.98760748996051
H         9.33483026224319    5.83189801011888   -0.28173836424815
H        10.49832838210831    4.66432823368099    3.08255438392400
H        11.53483218722588    5.18405128585940    1.75042235868542
H        10.06577408958971    6.08802535323586    2.13588892980620
H         9.74424851809079    2.15772665648000    0.40388191832560
H        10.31056138751644    2.35327923424332    2.06687775745116
H        11.34264051678206    2.83997999392600    0.72061648419676

