25
CSD_code = PASPIJ | q = 0 | S = 0 | Stoichiometry = C11H8I2N2OZn | MND = 4
Zn        7.97372259858069    2.10874874299284    4.75371301259544
I         6.87196100096815    0.57882479388768    6.44700155262159
I         8.36977889731036    2.37388119258468    2.30098264784819
O         8.23304201738759    3.16078534433181    8.84305725571335
N         7.39882897820699    4.01801284430775    5.52022067428203
N         9.81733835702549    2.52699273385233    5.74967113933939
C         6.63610011497191    4.87090054107723    4.85109814223282
H         6.58141660710501    4.72056359051204    3.78078062749507
C         5.93540278358742    5.89907478456532    5.46152261934585
H         5.32613227123137    6.56222031170448    4.86906527946026
C         6.02487927693088    6.03351290264354    6.83740812261696
H         5.47686745036075    6.80493722713211    7.35637274814381
C         6.83537173623510    5.15565242205659    7.53657195251463
H         6.94935690140841    5.21216778949293    8.60777069088930
C         7.51714309916539    4.15956805490795    6.84154288915945
C         8.42547522632790    3.28621301499019    7.65363124235722
C         9.70793909130861    2.79624942069161    7.05192947843133
C        10.79174602218903    2.67935332465395    7.91895678461734
H        10.64258855394727    2.88727403271381    8.96685338203089
C        12.02083515813666    2.28942539820172    7.41535904451601
H        12.87124978583360    2.17847218011862    8.07057793048266
C        12.13248274851646    2.04729233122185    6.05590177996416
H        13.06888919391150    1.75155712879114    5.61133540313869
C        10.99988582614080    2.17259241151605    5.26694143386855
H        11.03946630320249    1.97652748104508    4.20333416632211

