85
CSD_code = PASQOP | q = 0 | S = 0 | Stoichiometry = C37H43NOP2Ru | MND = 8
Ru        2.76068287009091    7.69741765511460    2.71748148857808
P         4.73653432453604    6.72253002454971    2.02582527843927
P         3.74702918793729    9.11227984137204    4.28729422313536
O         5.97273042672501    6.81256511472354    3.08130665859044
N         4.83575284441022    8.65149637867262    5.53336283478171
C         2.42608494653084    6.08884198239926    4.24446755869862
C         1.20096832418741    6.46295460826535    3.64551852467887
C         0.80277042556974    7.81101747103234    3.81441708326156
C         0.31680610565933    5.45199326374965    2.96554714432908
C         1.85224243041596    7.20904309235271    0.72618429485600
C         1.72551714772892    8.59262160768608    1.01292598698592
C         2.92494350387143    9.31424905020796    1.17519727201801
C         0.39295609390874    9.29105416677666    1.07496434536275
C         5.77446787939068    7.12578949507820    0.56295628091632
C         6.98107559045316    7.80805401964363    0.67028144234079
C         7.71483799225665    8.11422097193998   -0.46203218949716
C         7.25323792485053    7.74825635862442   -1.71471041335842
C         6.05982884721071    7.05460400120192   -1.82939991497293
C         5.32889446390465    6.74337671271419   -0.69834203592747
C         4.71819436930057    4.90620163090598    1.70270525309715
C         3.55089310958907    4.24920863265583    1.34615929939929
C         3.56205350679875    2.88893469306041    1.09209756700712
C         4.74343252752375    2.17474752428238    1.19722302312394
C         5.91481372140173    2.82645260946100    1.54957079774107
C         5.90434853615724    4.18627553234685    1.79621477473806
C         5.78259151523831    6.59039324468207    4.46462305956365
C         6.03515118489415    7.86483715365695    5.25810902279026
C         6.58122063346533    7.59261745962028    6.66965165897210
C         6.11449446444621    8.80138656258255    7.49542347689719
C         5.31683065975665    9.64212493601975    6.49298788950362
C         2.51383304428219    9.95504003981647    5.33410013302332
C         2.16953764222897    9.47267569868165    6.59378973551460
C         1.13972883918483   10.05833944848829    7.30823592751961
C         0.42934916899225   11.11596204121158    6.76459221211750
C         0.73879411139571   11.57389122511302    5.49340528264414
C         1.76712077583883   10.98942575447689    4.77873429207027
C         4.68393480028425   10.56304683141552    3.63531283699572
C         5.54821226791972   10.30751586435473    2.57769215441376
C         6.40549506274453   11.28246560193294    2.10433770757870
C         6.41463728297482   12.53515319650275    2.69556532407335
C         5.57040345728346   12.79646886506588    3.76194189072771
C         4.71683818493363   11.81648095277767    4.23926042043190
H         2.72670870361458    5.04582531284246    4.13801681264779
H         2.63863210160442    6.49556728765667    5.23550491531517
H         0.94759973127100    8.24958329350012    4.79653284597224
H        -0.16048167476697    8.08713290928907    3.39394797689967
H         0.88272511214265    4.64990990258665    2.49628941990840
H        -0.34556498743666    5.90926738461942    2.23315845172930
H        -0.31047175558723    5.00304378330399    3.74050161475389
H         2.63571487915217    6.92842023728400    0.02532870661193
H         0.93056019867071    6.66097079184126    0.54545809869287
H         2.83753647248689   10.37819210439494    1.38795782420455
H         3.75637357074932    9.08974088846650    0.50577701662640
H        -0.43036814996687    8.59250665459158    1.21005748550930
H         0.24436141819495    9.79934468273733    0.11854222860103
H         0.36230112030191   10.04234018420281    1.86280748339103
H         7.35618916803203    8.08375400236482    1.64385220720869
H         8.65424440640039    8.64020844781922   -0.36543604301329
H         7.82529711611058    7.99307143432098   -2.59772462073845
H         5.70116616959766    6.75086262507895   -2.80232660237504
H         4.41255962565053    6.17699531505218   -0.79246730646812
H         2.63700180856503    4.81893216550963    1.26863344322156
H         2.64801020305352    2.38375320445737    0.81274740024899
H         4.75326749318624    1.11189263656854    1.00336145808977
H         6.83891051680500    2.27126256541413    1.62764476767464
H         6.81753552992562    4.70066251034939    2.06136737141130
H         6.51113028888459    5.82779638220060    4.76377726371836
H         4.77452830861647    6.22368418292734    4.67288443654264
H         6.76918674242033    8.46893486491937    4.69664022239778
H         6.14627557878878    6.67087166058175    7.05536134306777
H         7.66399454182256    7.48474569039509    6.66046299109045
H         5.47615735142680    8.48343973704181    8.31839920325443
H         6.94760349376151    9.36675017331100    7.90896780655260
H         4.49160717919698   10.18068273666031    6.95434204716916
H         5.98214300181985   10.37369760009826    6.01083059257647
H         2.70923122613234    8.62940895969530    7.00321113427412
H         0.88353307376917    9.68300709301102    8.28896600028452
H        -0.37412139546899   11.57250131667827    7.32397434183745
H         0.17123077491463   12.38445639537904    5.05877261440893
H         1.99907780456944   11.32580846913931    3.77693584136192
H         5.52269398966929    9.32847694938015    2.11925366806992
H         7.06292651463531   11.06532600541350    1.27439372378047
H         7.07831226496741   13.30512785430946    2.32961405143448
H         5.57957040525053   13.77005464773810    4.23151051182283
H         4.06923988104682   12.03777764113209    5.07598964641546

