80
CSD_code = PASROQ | q = 0 | S = 0 | Stoichiometry = C30H46P2PtSi | MND = 4
Pt        1.89540590845567    0.06077593477623    0.07642837065046
P         3.58144098716155   -0.12358529194169   -1.63451530524264
P        -0.06243549519635    0.12315685271414   -1.16181648377630
Si        0.86478463901730    0.07673336056413    2.19094729936422
C         1.32082965162875    1.60582223497067    3.25546020056644
C         2.23478282875420    2.54123369254081    2.78650196799705
C         2.57013902180589    3.65968039582621    3.52760761301923
C         1.99047597656124    3.86430229229183    4.76799581217780
C         1.07425058046461    2.94581810383092    5.25189383475575
C         0.74384209791105    1.83334586167511    4.49905805412199
C        -1.04059464543534   -0.02622641724680    2.42828020848626
C        -1.81252720768547    1.11585183552127    2.61759899871163
C        -3.18205718643436    1.03730885653661    2.80126591681318
C        -3.81244119434653   -0.19580901293920    2.79230158654758
C        -3.06175958267640   -1.34436439258648    2.60513193180360
C        -1.69222000399934   -1.25508846413820    2.42667455483575
C         1.39999664021260   -1.52214468454773    3.11791336211902
C         2.21723751988371   -2.45348603307459    2.48893129525950
C         2.58278346875194   -3.63415188386583    3.10883393799586
C         2.13373818038804   -3.90654272545827    4.38977319948028
C         1.31790535416873   -2.99232666140282    5.03467553112900
C         0.95385302000878   -1.81806800841950    4.40022955425800
C         4.96435725962968   -1.25686828563894   -1.17289043798562
C         4.52281158212729   -2.71269295036363   -1.25655815835082
C         3.48623332147667   -0.37200095825195   -3.48223221844707
C         4.80067772295209   -0.52771016930143   -4.23594084495133
C         4.40618996979945    1.52553728214918   -1.52503562793511
C         3.33592097435284    2.60904662820022   -1.44252860903959
C         0.09778772684429    0.32037981080150   -3.00073516142054
C        -1.17839035787912    0.53076520248408   -3.80480647442837
C        -1.35547345873132    1.36294587867266   -0.73916885429603
C        -0.72922403276829    2.74810104352158   -0.63475580909282
C        -0.96888321446268   -1.47320762437429   -1.01506326649676
C         0.05418842015716   -2.60195310954308   -0.94120969617218
H         3.14501772875599    0.05907541954211    0.96190390028809
H         2.69402514651386    2.38006994456535    1.81836182392193
H         3.28377765920948    4.37445361413006    3.14051597692263
H         2.24866980737135    4.73554879511718    5.35381398202766
H         0.61432837691954    3.10075983227533    6.21847569575448
H         0.01473236101208    1.13507598743028    4.88380007597107
H        -1.32765960124986    2.08218364806285    2.62891464874575
H        -3.76014378277165    1.93867256778514    2.95317801193970
H        -4.88170956342523   -0.26166241236326    2.93650807652489
H        -3.54592288124407   -2.31160994224207    2.60341316429214
H        -1.11072198990587   -2.15787076335962    2.29894488573345
H         2.58042247408569   -2.23618133145943    1.48910167360395
H         3.21797261429440   -4.34414953712477    2.59613530241001
H         2.41645897215601   -4.82648573886271    4.88242669227994
H         0.96191922296208   -3.19938190520730    6.03474938206041
H         0.30556473419932   -1.12205651454079    4.91169585208668
H         5.83867815158805   -1.06729540295676   -1.80011551492395
H         5.22405397083773   -1.01452593109698   -0.13914760903470
H         3.62897951210299   -2.86144533564818   -0.65162295350667
H         4.29120863933532   -2.99706996210398   -2.28161671627724
H         5.30270441822983   -3.37485682166327   -0.88516415282616
H         2.86083923706423   -1.25181249859613   -3.65836058314117
H         2.94315467920685    0.49358828339746   -3.87175739304407
H         5.28499949403308   -1.47116298156688   -3.99831303657560
H         4.60798712311041   -0.51242217970206   -5.30799082837825
H         5.49085044904738    0.28198645568116   -4.00933290656559
H         4.99425950540819    1.52225415017860   -0.60365126903321
H         5.08049251506689    1.69864343242357   -2.36709214398193
H         3.76613781839132    3.57224142987501   -1.17472793180830
H         2.81713612199032    2.71967598145118   -2.39388259643184
H         2.60085489047626    2.32551486226590   -0.67509986651660
H         0.78031884132995    1.15743992869957   -3.17203188021836
H         0.60504045022172   -0.58633414745417   -3.34344848975608
H        -1.59319539200095    1.52122909295304   -3.63485151720288
H        -0.95974981436764    0.43975796193786   -4.86812581326102
H        -1.93563567271812   -0.20939550670232   -3.55444070704949
H        -2.16535667986122    1.34108008894056   -1.47090733859678
H        -1.76577017216897    1.07471863334856    0.23061963651576
H         0.09211186543956    2.72107740914669    0.08343311153207
H        -0.33756154233642    3.07695484078585   -1.59635827316582
H        -1.45892236115476    3.47958046223050   -0.29333890824110
H        -1.54146973233258   -1.43120757180857   -0.08526169174191
H        -1.66524221585980   -1.62076975521914   -1.84408937294555
H        -0.41187035002614   -3.54261156933540   -0.65446811787579
H         0.54963234020214   -2.74416337824501   -1.90099151197524
H         0.81247615808476   -2.34679022895432   -0.19184905132062

