46
CSD_code = PASSIL | q = 0 | S = 0 | Stoichiometry = C18H24N2OPd | MND = 4
Pd        5.68789815583441    3.12678508398003    0.67595432647521
O         6.93457078246449    3.73463383577621    2.31778444580041
N         3.93593725812049    2.63183174096033    1.75063881333290
N         7.12761188720886    3.26126119744782   -0.86400532951197
C         4.61674841189252    2.48133121570900   -0.79256558576105
C         3.41194322693116    1.84799482723973   -0.52283688071926
C         2.65773129689385    1.35841698174563   -1.57967079371307
C         3.13727712148022    1.49046187432896   -2.87571533880094
C         4.36195257428366    2.08963128361887   -3.13844159464409
C         5.11150128934468    2.59264877474605   -2.08517212260604
C         3.10487301490582    1.69164466635600    0.94884157627048
C         3.21720101326830    3.89721735450267    1.91623209897031
C         4.25562123041887    2.06970716690414    3.06023484590920
C         6.44615027998817    3.29670813073589   -2.18333400857656
C         7.80875418132983    1.97390737776616   -0.68508698670475
C         8.09578166438199    4.34507442647529   -0.73639973223699
C         6.72613674072012    4.97496103031749    2.63226862136611
C         6.01230096234458    5.86320765309264    1.78776633945647
C         5.79733128971092    7.17782874728466    2.14676148636751
C         6.28001448326010    7.67151956723743    3.34750843539243
C         6.98967201426745    6.82448239633740    4.18733998548932
C         7.21113239147991    5.50996391449922    3.84672828389790
H         2.97113453347668    4.30892589005454    0.93307078801471
H         3.84432180483534    4.61194247116883    2.45655526075801
H         2.28690189084599    3.74495817896947    2.48205933072540
H         4.81194611847012    1.13816079826024    2.93501862886600
H         3.34617134253225    1.87433865294034    3.64512990612779
H         4.88809481396023    2.77209004508122    3.60607756528816
H         3.36419269020965    0.66710964771359    1.24175175612697
H         2.03956869018020    1.84284301593515    1.17418034341090
H         1.71015991578132    0.86850878286933   -1.40179429345601
H         2.55008829546545    1.10723043145988   -3.69745877802814
H         4.72132244549416    2.16042201818570   -4.15591803480701
H         7.09417906474176    2.85768606595305   -2.95669993619045
H         6.27010942312358    4.34594526091558   -2.44893359304411
H         8.53591367503649    4.31214804324789    0.26171246820247
H         7.59885411157993    5.30839535558557   -0.85878322947773
H         8.89406909584354    4.25635995121563   -1.48611028535782
H         8.19919761925562    1.91303419436770    0.33650052382242
H         8.64389580348826    1.87365552289333   -1.39432290838286
H         7.10211943183285    1.15435189283960   -0.85200005929735
H         5.63303402179275    5.48670804360773    0.81726970605301
H         5.24677565080179    7.83006438507885    1.47978012642311
H         6.10954192625220    8.70166634669649    3.62381643844138
H         7.37411196932605    7.20212930762775    5.12601422128460
H         7.76435439501243    4.85400645021547    4.50475316914448

