53
CSD_code = PASSAD | q = 0 | S = 0 | Stoichiometry = C20H28N2O2Pd | MND = 4
Pd       -0.00032170732795   -0.00055018481952   -0.00012877393375
O         0.74060868872223    1.24273852117558    1.44798286225378
N        -1.08602137848999    1.61570280198459   -0.67810361687745
C         0.01164286551913    1.30635778016078    2.53037011749395
C         0.43680127592864    2.09981665420120    3.61415052900064
C        -0.30964245887266    2.18819697679003    4.76808737387530
C        -1.50465745309838    1.49676824660290    4.89763070446314
C        -1.94264154806441    0.70822502588218    3.84688525441452
C        -1.20733695017289    0.60844365951677    2.68257257477217
C        -0.67050903175185    2.18461885789891   -1.96325800437056
C        -1.78032165902467    3.18713806384804   -2.31128138795176
C        -3.04200443559251    2.57860141373138   -1.67262196644885
C        -2.52400266803172    1.38156921137173   -0.84952237324980
H        -0.95430353933303    2.33521823418348    0.04183819791856
H         1.36787698739398    2.63875329957696    3.51292432572413
H         0.04399584327595    2.80703804212945    5.58148008877618
H        -2.08470504258373    1.57061667353539    5.80517731526360
H        -2.87143563252902    0.16044874054163    3.93661337783043
H        -1.56562075889837   -0.03330163470269    1.85907245359092
H         0.31864257442397    2.64212251041729   -1.88562415335804
H        -0.64100705623239    1.38070358419329   -2.70653561587732
H        -1.55947407909105    4.16123735384069   -1.87320501229874
H        -1.88120633867600    3.31600564466087   -3.38633726717471
H        -3.54231214185775    3.30425268979106   -1.03216615422047
H        -3.75527142320642    2.25022228768403   -2.42566516752861
H        -2.64574811722439    0.44751854159653   -1.40799790354170
H        -3.01877601540566    1.28612442778947    0.11965171203628
O        -0.74128748459646   -1.24291176049652   -1.44845311620831
N         1.08629252424013   -1.61552491176101    0.67846875222939
C        -0.01225299862044   -1.30577009380890   -2.53076960346089
C         0.67084821927704   -2.18470808910894    1.96349018653719
C         2.52434317026281   -1.38167621378556    0.84921634103642
H         0.95408094139291   -2.33480331005622   -0.04159130376934
C        -0.43657496388514   -2.10013217876359   -3.61418617373336
C         1.20689019606324   -0.60801629862575   -2.68248502292055
C         1.78032175769183   -3.18767456077480    2.31113369484073
H        -0.31839634702490   -2.64198969087170    1.88600132559289
H         0.64156371207923   -1.38091844192549    2.70685142947390
C         3.04191346131503   -2.57859941201371    1.67270230170776
H         2.64617266718344   -0.44763032044126    1.40761480226985
H         3.01868949304296   -1.28632208473405   -0.12021822440707
C         0.31040496285089   -2.18897388550524   -4.76771000158229
H        -1.36782259286688   -2.63879215457034   -3.51325847888204
C         1.94233864138042   -0.70753350825238   -3.84675496001044
H         1.56528237644763    0.03313197017424   -1.85858511553772
H         1.55912464512644   -4.16147644710414    1.87251145268498
H         1.88116334851674   -3.31706290090597    3.38612845790855
H         3.54250939200921   -3.30401604946088    1.03240872827268
H         3.75492034724267   -2.24999752545753    2.42578995537481
C         1.50492771125368   -1.49667172708068   -4.89736783901917
H        -0.04395949550297   -2.80631510124380   -5.58179843790989
H         2.87139095839721   -0.16015274906643   -3.93612073795417
H         2.08486655692278   -1.57004997794045   -5.80500790311434

