79
CSD_code = PASTEI | q = 0 | S = 0 | Stoichiometry = C24H48O2P2RuSi2 | MND = 6
Ru       -0.00009130937089    0.00008191669760    0.00032092309701
P         1.21210122413771    1.88581410842505    0.61663637708876
Si        4.21289667131557   -2.83851515598322   -0.39078719050841
O        -0.32159799055223   -0.65250056361794    2.91881394343421
C        -0.17724387103259   -0.42646772798430    1.80207736155888
C         1.70737313990429   -1.09426485335142   -0.20000809252032
C         2.70747762803367   -1.77663606521263   -0.29329476195350
C         5.07331310125438   -2.61946882845810   -2.08073840858541
C         3.70417790755661   -4.66901393717603   -0.18037195670571
C         5.42986854332397   -2.36111640315188    1.00170867221240
C         0.44875554960737    2.82935640683956    2.00672058112199
C         1.17536160117799    4.08885749745828    2.46155394310648
C         2.96164963942620    1.63341172150028    1.14245354860038
C         3.07866490148900    0.73438588498125    2.36561187449214
C         1.46424295432589    3.16492695704404   -0.68781969544621
C         0.15610852644578    3.79919227560846   -1.14502507971231
H         4.40901346811254   -2.88817635139505   -2.89677332698271
H         5.96167171380225   -3.24003834086016   -2.16083445926937
H         5.37706409376427   -1.58822540029733   -2.23453492696507
H         3.19073213889118   -4.82595456765543    0.76376713305071
H         4.56751285447283   -5.32829511179299   -0.19956330283881
H         3.03360045797047   -4.98473727781993   -0.97477251044735
H         4.96191413136739   -2.45116729218790    1.97756977108827
H         5.76557079572040   -1.33383718945453    0.89314886774374
H         6.31075644984374   -2.99714368361343    0.99864916639611
H         0.35388055506950    2.12613110208862    2.84119240058674
H        -0.56838668411321    3.06310192447585    1.67344842350432
H         0.61783150277739    4.55581930174080    3.27164506578406
H         1.25951330138805    4.81191799192705    1.65425229842241
H         2.17274718708350    3.86130620164925    2.83061460523935
H         3.42373330708121    2.60843781288324    1.32450916197676
H         3.46604517880563    1.16066807042749    0.29322230119208
H         2.63122309843617   -0.23585781105353    2.15291406376924
H         2.58143187874254    1.17298504315806    3.22880848194953
H         4.12518729122607    0.57516376055498    2.61710209226143
H         1.95034103078735    2.65133686182914   -1.52519128867434
H         2.15776995577015    3.92509752252853   -0.31494551181614
H        -0.58504726852346    3.03148013541548   -1.36679410995081
H         0.31698256154377    4.39690351018176   -2.04033269721129
H        -0.25656125030932    4.44304749954116   -0.37217392872902
P        -1.21191909072465   -1.88580869924999   -0.61641760791063
C         0.17700567830154    0.42656620712298   -1.80146886396934
C        -1.70742618345569    1.09458639006152    0.20040981522299
C        -0.44856636609811   -2.82940026043293   -2.00641791506219
C        -2.96157774560813   -1.63358471328485   -1.14196514937112
C        -1.46395382926937   -3.16481879852956    0.68818109490512
O         0.32106761081374    0.65271407230250   -2.91821332640287
C        -2.70762728917241    1.77682766025038    0.29334081663059
C        -1.17508487764398   -4.08897322649140   -2.46115412930586
H        -0.35382807570131   -2.12613304682444   -2.84086328160895
H         0.56860832714628   -3.06299163545205   -1.67314790376066
C        -3.07876334505353   -0.73467772158844   -2.36518577171873
H        -3.42360023151251   -2.60866653397342   -1.32388126552925
H        -3.46594921170623   -1.16080529063393   -0.29273420444995
C        -0.15579905670392   -3.79887597387591    1.14561092877135
H        -1.95020546323298   -2.65127694224064    1.52549946900873
H        -2.15733292255393   -3.92513838996216    0.31533451633608
Si       -4.21313705400317    2.83860950443982    0.39013040565762
H        -0.61764814363881   -4.55577751654367   -3.27139855037807
H        -1.25894152113329   -4.81208399990159   -1.65386643151157
H        -2.17258576663989   -3.86153939370359   -2.82997766653054
H        -2.63141604797895    0.23563426519637   -2.15260770416162
H        -2.58153450407680   -1.17330333469817   -3.22836759055072
H        -4.12532270576144   -0.57560351860107   -2.61661798420915
H         0.58522580712833   -3.03105687856172    1.36744006401489
H        -0.31668884406708   -4.39658381817406    2.04091826399744
H         0.25705240855335   -4.44269801770869    0.37283641973607
C        -5.07409806085059    2.61953717147200    2.07979492701042
C        -3.70435327747802    4.66908277024633    0.17977815636598
C        -5.42951914846096    2.36093518046199   -1.00277812270757
H        -4.41008003514808    2.88826902430728    2.89605095605240
H        -5.96248003394492    3.24011208284331    2.15956141040096
H        -5.37789733450663    1.58829133827709    2.23351441061832
H        -3.19062187461130    4.82592422532653   -0.76422347991611
H        -4.56774881387984    5.32829203861605    0.19862446412115
H        -3.03403449840233    4.98491147162409    0.97436136936692
H        -4.96118908866231    2.45104004201006   -1.97844683043192
H        -5.76512774566296    1.33361182072828   -0.89434532491023
H        -6.31048761127817    2.99684549921227   -1.00008819314216

