83
CSD_code = PASTIM | q = 0 | S = 0 | Stoichiometry = C28H48O2P2RuSi2 | MND = 6
Ru       -0.00250743822801    0.00264460991099    0.00090053099142
P         2.10076331209389    0.85066370501910   -0.53274451427018
Si        2.40016139407733   -0.91287853701676    7.22331699236872
O         1.07670259795263   -2.76245668493222   -0.48852200408064
C         0.64747163767589   -1.70938637503642   -0.33522701544332
C         0.63560601691511   -0.26551998190156    1.91158012041143
C         1.02235682664434   -0.41279585043942    3.05604617192813
C         1.44633580668426   -0.56700721513697    4.33653895216659
C         1.82935422558263   -0.70048313337011    5.48355076049177
C         3.06270737357127    0.75381632593488    7.87551889629546
C         0.93287114300131   -1.48742012516515    8.30003853096917
C         3.78814997797842   -2.22158622432998    7.27562842661424
C         2.54993399895048    0.93375188770805   -2.31858819097357
C         2.56622213102192   -0.43692921100572   -2.98180357059334
C         3.49243661582096   -0.08135139414840    0.24095425452331
C         4.90013255040436    0.41601659418772   -0.06253085935775
C         2.42299723607238    2.60110937796416   -0.05169767407553
C         2.39699425045697    2.81034002599411    1.45753514023581
H         3.40441833171205    0.67134555954460    8.90363017294218
H         2.29420066053591    1.52049900091149    7.84451642516857
H         3.89886206874232    1.10503303425431    7.27804141809554
H         1.22979005289336   -1.62723634985297    9.33584215260411
H         0.53003430566442   -2.43064907780142    7.94296064255383
H         0.12635638385060   -0.76024951194985    8.28412510077717
H         3.44308675694602   -3.17463915335616    6.88576428191333
H         4.14011524731951   -2.38869769194161    8.28994652529004
H         4.64103530707384   -1.91361442805704    6.67790603156238
H         3.52079407476995    1.42878158360780   -2.41679527032576
H         1.79122693301168    1.56367091546982   -2.79505789135836
H         1.59188453813394   -0.91341433794078   -2.87676713541006
H         3.32217631438770   -1.08257427661506   -2.53854528880957
H         2.77948182950538   -0.33813514098001   -4.04421101554417
H         3.38277808240247   -1.12338733230613   -0.07948284521140
H         3.29883924469139   -0.06050769273515    1.31891346691234
H         5.62277230960970   -0.20016687509942    0.46941726023149
H         5.03649260055615    1.44470229880012    0.26151988361773
H         5.12429069031806    0.35230302933184   -1.12476190368178
H         1.63840449109694    3.19757824444672   -0.53184073921743
H         3.38380012449532    2.91438759952416   -0.47194446882394
H         2.41587104431621    3.87267192007413    1.69314554264669
H         3.25440817790720    2.33924423774040    1.93266312611278
H         1.49548246832378    2.37706667310906    1.89061611173396
P        -2.10568432025774   -0.84447581675578    0.53530524865940
C        -0.65189046426084    1.71489083971016    0.33692810207778
C        -0.64044573996053    0.26978369602694   -1.90992924140505
C        -2.55500285279617   -0.92512553235204    2.32119912866419
C        -3.49692887038087    0.08683893184649   -0.24004840864499
C        -2.42811265282161   -2.59547310567416    0.05648077831395
O        -1.08169165742668    2.76767633613379    0.49077345777556
C        -1.02428954166685    0.41339821209142   -3.05582175739061
C        -2.56924884980505    0.44624161650100    2.98302196998207
H        -3.52662044570636   -1.41858420422094    2.41977504562406
H        -1.79725384213294   -1.55572915596717    2.79829114959726
C        -4.90487388453371   -0.40943237384660    0.06406171897260
H        -3.38692110035925    1.12936499831130    0.07866220957695
H        -3.30319853698388    0.06414661529507   -1.31795528481409
C        -2.40252028777739   -2.80661116754283   -1.45250092846994
H        -1.64338988427368   -3.19133393613509    0.53717093471948
H        -3.38880375396209   -2.90817965918599    0.47740347176204
C        -1.44581506023656    0.56337953627325   -4.33761701299178
H        -1.59381197152573    0.92061456108983    2.87864531126009
H        -3.32335222237601    1.09300958039499    2.53823704482249
H        -2.78396004248721    0.34893310703813    4.04527194388152
H        -5.62712035426205    0.20583303197073   -0.46948576955244
H        -5.04148413652190   -1.43878637291256   -0.25775750165669
H        -5.12937271147672   -0.34328609973583    1.12607149346303
H        -2.42101671693234   -3.86924357905990   -1.68677486385930
H        -3.26030644756707   -2.33650594659161   -1.92793539512982
H        -1.50133750786185   -2.37348621729207   -1.88642444977394
C        -1.82659124683692    0.69542180705261   -5.48553001432356
Si       -2.39291173324591    0.90266648111732   -7.22736967183526
C        -3.05232089668421   -0.76606075487694   -7.87755662555861
C        -0.92292265467448    1.47580349491897   -8.30118287143863
C        -3.78170628173112    2.21018142249925   -7.28668519441729
H        -3.39258258987416   -0.68580256712852   -8.90632501903454
H        -2.28288848337049   -1.53171077113454   -7.84408363499528
H        -3.88893626351013   -1.11731816469850   -7.28074814079905
H        -1.21714990977562    1.61407315764802   -9.33795724349486
H        -0.52112418722189    2.41960272840390   -7.94443409062836
H        -0.11635206062250    0.74876691208860   -8.28210854253366
H        -3.43829896739646    3.16452387228813   -6.89851472763542
H        -4.13118313284596    2.37427540278851   -8.30235308844505
H        -4.63586943083149    1.90317906119911   -6.69029606227981

