80
CSD_code = PASVAG | q = 0 | S = 0 | Stoichiometry = C30H43Cl3P2PtSi | MND = 4
Pt        7.99203630473842    0.19809053638157   16.56214899973587
Cl        9.98474289664882   -5.95739752694147   20.61038714087200
Cl       10.71411431228922    3.78091989026509   23.15737614788504
Cl        1.77627635210060    0.55827814722949   20.89102242151099
P         7.77137227082590   -0.06338127621715   14.18848840176661
P         9.50883867373824    1.96917763890901   16.62985341854887
Si        7.86417745202557   -0.12273806444628   18.88895064306303
C         8.49406984105916   -1.85538473419449   19.43037089397375
C         8.75128781912125   -2.83081611556821   18.47526748261793
C         9.20834168805917   -4.08946703475935   18.82006598204087
C         9.41153476291986   -4.38547256631642   20.15684113144261
C         9.16584050168268   -3.43774311577915   21.13550331398582
C         8.71413135866873   -2.18454839506759   20.76233702473795
C         8.72140490086092    1.02900190833546   20.17096355726007
C         9.99890456720031    0.76413328509740   20.65381215482347
C        10.61691605110677    1.59513214975049   21.57206658261781
C         9.94879322671053    2.72420165669932   22.01528126748564
C         8.67510801102671    3.01662890236987   21.55722352869024
C         8.07677351990741    2.16742200337366   20.64302998228884
C         6.04324959683482    0.03541588249627   19.49261963011296
C         5.04353005157671    0.44202884671179   18.61796417474675
C         3.73415117418125    0.60770235330062   19.03099331442540
C         3.41220718060134    0.35637017046641   20.35340797488302
C         4.38230425873941   -0.05398367296497   21.25180350836371
C         5.68531837145971   -0.20569781963626   20.81325272231221
C         6.47618106263655   -1.32596511158417   13.79231264452607
C         6.25717720092367   -1.69514050131835   12.33110445598855
C         7.51434277293436    1.18306989943533   12.84114288967221
C         6.21601638865345    1.94933922967846   13.05888648344096
C         9.31948786518595   -0.89199924231200   13.61525122722648
C         9.83059198349366   -1.81086050948756   14.71907483411061
C        10.09742292078498    2.69463290956957   15.02459717556082
C        11.16353646257943    3.78050392987341   15.08777678003161
C        11.05165325753660    1.87256318484672   17.63004073500799
C        11.83761089956038    0.61420980064420   17.28361738288821
C         8.64405281245046    3.40327789782725   17.39473861173049
C         7.20595711065938    3.43857061816582   16.88687143406295
H         6.94704684525192   -0.91086605633584   16.61592324240814
H         8.58320036466614   -2.59426712175691   17.43295638466777
H         9.40599821400733   -4.83547292449003   18.06528529696375
H         9.32924344282902   -3.67927100834613   22.17482712776595
H         8.54141587457581   -1.44683832487766   21.53169611822510
H        10.51989403831358   -0.11826495611672   20.31100075457460
H        11.60620059520645    1.37190405165745   21.94160914213583
H         8.15995603288137    3.89492358438355   21.91536180184009
H         7.07721429747912    2.38767808693198   20.29667553405673
H         5.29680739377824    0.62588149817645   17.57995697215116
H         2.96916998291519    0.92688278816038   18.33942866325915
H         4.11875319574300   -0.24855547017262   22.28029980046313
H         6.43792705540550   -0.51816134519108   21.52049578442183
H         6.75876526426200   -2.21369662724627   14.36626592047204
H         5.54337535745353   -0.95869291002615   14.22996120699315
H         5.56497611512156   -2.53321550291372   12.27235773436382
H         5.82598685170744   -0.87026704194573   11.76930994597767
H         7.18429251415435   -1.99663067476797   11.84815737149199
H         8.36179200863472    1.87154678251624   12.85416813619822
H         7.51635885256958    0.67465559051013   11.87449406372018
H         6.19191712146983    2.37050716775052   14.06338735079071
H         6.11810033181762    2.76100934125471   12.33986569654897
H         5.35492900755646    1.29332996675736   12.95253490810380
H         9.14762468285463   -1.44307906017933   12.68761243913096
H        10.05654027813555   -0.11205727519562   13.40641265036870
H         9.20405168924225   -2.69629338510955   14.80392438958290
H        10.85253739794179   -2.13278835342188   14.52741187776179
H         9.80340725462910   -1.27630486161950   15.67950022521395
H        10.45695556021091    1.86847743117393   14.40512543047971
H         9.19549146390512    3.09148317655911   14.54797750247335
H        12.12852908066291    3.36987154859894   15.37417380490104
H        11.27592378205615    4.23914764100627   14.10625471012412
H        10.89604370656052    4.56378341329956   15.79370393682999
H        11.65316745609148    2.77157199402744   17.48401060810988
H        10.74594442568579    1.83642348662468   18.67752025153443
H        11.21810215291227   -0.26508827162807   17.46272603388680
H        12.14222572417376    0.61664668736487   16.23796353253701
H        12.73070729327234    0.53474378786556   17.90005325348254
H         8.65088978668635    3.23595549707931   18.47434408815720
H         9.16163330082284    4.34327654855323   17.18941051509051
H         6.58424343647060    4.08334757106448   17.50422000465620
H         7.16228295895039    3.80482319985451   15.86217654064762
H         6.78922192946373    2.42216517534972   16.91701319297276

