49
CSD_code = PASWIS | q = 1 | S = 0 | Stoichiometry = C26H16CoN6(1+) | MND = 6
Co        2.60261033084156    3.44198386644259    0.52300013699965
N         3.69297697060574    3.41261675146345    2.15286565541973
N         4.21442899973274    3.72073299632520   -0.40381502888999
C         0.62795314721121    1.88775504501292    1.46943812794252
N         0.97606711908615    3.19208319579728    1.43096958949217
C         4.97840029938878    3.65437323345093    1.82908707887648
C         1.53896391667081    0.96541181340445    0.88456072508538
N         2.65965956179738    1.48901436774860    0.35020772153833
C         5.26001778911691    3.82165684224759    0.44506934954793
C         6.57683553115891    4.09576996723984    0.02308531972623
C        -0.57645541821588    1.42380939089412    2.03634870979342
C         3.39408327739931    3.26631862158655    3.43086979608826
H         2.35865099711262    3.07800229042095    3.68137223182054
C         4.34774056318229    3.34989794812380    4.44674411111754
H         4.03703795361085    3.22410563228211    5.47131341211715
C         6.01419199871009    3.75894618077544    2.78004089819078
C         4.44277913533684    3.89283872344041   -1.69739908057400
H         3.59500029642046    3.82269034194958   -2.36464530317233
C         5.71395830951317    4.16589126635974   -2.20574359508281
H         5.83160150288111    4.30025247537308   -3.26875005503072
C         3.52067397088549    0.66184329318284   -0.21404819102798
H         4.41453473227101    1.09228440586525   -0.64550889460828
C         7.60579875676564    4.19011954363978    1.00552085848621
H         8.60892848005946    4.40187455589997    0.66885416052369
C        -1.07486419347587    3.70837063305645    2.53582575993471
H        -1.71379159575022    4.47793439785382    2.93757398325784
C         1.24092998916408   -0.41270004089362    0.87217104103040
C         6.78898618757131    4.27177977822676   -1.35395632009870
H         7.77851028049583    4.49281869092941   -1.72299734420371
C         0.13814306399686    4.07661001524887    1.95112410754135
H         0.42277858111024    5.11844580961372    1.90201889192090
C        -0.84982461361066    0.02464211137910    2.01485192396210
H        -1.77618953769485   -0.31660019647760    2.45047055884587
C         3.31768818817599   -0.71789705926551   -0.27507325247218
H         4.05888452408033   -1.33787078372990   -0.75293447360639
C         7.33738013134544    4.02866585535635    2.32487600360884
H         8.12159909781987    4.10874838847173    3.06187914391709
C         0.01943299589175   -0.85473743651779    1.45813674336503
H        -0.19912040202615   -1.91133590035454    1.44069992136262
C         5.66321211114835    3.59869859576645    4.12995201935524
H         6.41851709386379    3.67648329458906    4.89663119485986
C        -1.44394287846206    2.38399661291042    2.58204812015558
H        -2.38149881110532    2.07703811593568    3.01911648530263
C         2.17689095755997   -1.26513025693222    0.26514386245437
H         1.99193017684133   -2.32746529717413    0.22410983445102
C         1.58017071118515    3.52496147371455   -1.01071819515646
N         0.92849974411460    3.46438391414616   -1.94975762302687
C         2.51089583990697    5.28102828320271    0.64169056180588
N         2.53844413631134    6.41595825201911    0.78757931705141

