58
CSD_code = PASZUH | q = 0 | S = 0 | Stoichiometry = C23H27Cl2N3O2Pt | MND = 4
Pt        6.12033390184994    2.37699300918555   14.35946122904751
Cl        6.01944936431813    3.56717633732958   12.46707848865258
Cl        4.38850420078827    1.14534361950777   13.64468160421276
N         6.34073233087618    1.37913624447686   16.04247130894906
N         7.38304867712721    1.82318410404249   16.81096330518427
N         7.67866360899051    3.36776940898380   15.19086586182438
O         6.06142544609295   -2.70068543269167   20.97972956060282
O         7.81084152815563   -1.74133337786325   22.00159941733661
C         5.77277733368517    0.35678407319358   16.63366603389698
H         4.93145495217512   -0.13666823227923   16.18629696281559
C         6.44158676803310    0.08301401161789   17.85173043845469
C         6.26266185984965   -0.86613552659215   18.85373789627060
H         5.47911941637864   -1.60479277424893   18.79926277230389
C         7.12283859980284   -0.84301608513574   19.93766408388126
C         8.14728531907988    0.11308682868014   20.02202728924503
H         8.79674868198368    0.09834383269989   20.88212498282626
C         8.33988857587073    1.06157282778587   19.03971316344219
H         9.13629190190894    1.77758394551472   19.14279470195489
C         7.48164357591942    1.04730218598766   17.94537904230826
C         8.08267812199502    2.90831487571298   16.32614129563106
C         9.23006349261591    3.45669043971238   17.10800407297414
H         9.66597491931622    4.29042179006793   16.56154577294096
H         9.99047752974586    2.69010963883558   17.25147726996314
H         8.89984945080375    3.81063392143145   18.08379477216362
C         8.24823721206563    4.50603502384833   14.57975387911111
C         7.86390186808209    5.78244862585325   15.01539626899168
C         8.39752693034240    6.87919608156581   14.35643622442623
H         8.11121133863652    7.87447567516953   14.65359061055090
C         9.29271198660865    6.71784063941265   13.31497872093141
H         9.70308768009015    7.58626244179726   12.82209736325875
C         9.64789215986306    5.45271819176412   12.89107518310798
H        10.33395972512954    5.34174417839802   12.06728394541282
C         9.11983454835223    4.32451681390409   13.50135217298280
C         6.83588078327911    5.93608768711050   16.11551921257491
H         6.98161214548774    5.13687939293708   16.85182431716440
C         5.43540322087754    5.77623103059503   15.51368811715815
H         5.27088374792212    6.52375245003659   14.74211497439959
H         4.67646167851133    5.89002900718654   16.28447489808098
H         5.31648269729632    4.78860115084610   15.05428316070665
C         6.94217864602174    7.26448354754998   16.86407129118653
H         7.96537693150662    7.45071513610657   17.18448933223682
H         6.30506090473257    7.23728399447359   17.74556781543248
H         6.61170468739537    8.09191670010245   16.24246922710869
C         9.48599535004304    2.93583631399806   13.03156166247483
H         8.72655647694823    2.23205071792920   13.40621079075037
C         9.47350736242324    2.82697791040755   11.50788580298867
H         8.52514329794673    3.19388762932353   11.12488118105330
H         9.58528229566586    1.78558193352596   11.21493175183801
H        10.28360093143771    3.39397819856251   11.05694477135109
C        10.85001147963050    2.52997277785394   13.59658742659960
H        11.10588994513953    1.52383226772760   13.27278032353126
H        10.84726024728351    2.55221709875527   14.68496827733270
H        11.62080354507455    3.21201287466093   13.24378432141446
C         6.92435627287808   -1.85948839649375   21.00361231228290
C         7.67867754117704   -2.68307511371074   23.05694781488794
H         6.68874134949623   -2.60655937840562   23.51102042353931
H         8.45246329414692   -2.43996608753223   23.78032106286666
H         7.81176216113258   -3.69810618121648   22.67738403538547

