50
CSD_code = PATBOD | q = 0 | S = 0 | Stoichiometry = C18H28MoP2S | MND = 10
Mo       13.10906634929442    3.10635009446403   10.84442265058898
H        14.55763031018906    3.03862063083213   11.47160401096266
S        10.91252101111499    4.43028574110752   11.03559817013979
P        13.95581402057730    5.26839011222008   10.40314987799914
P        12.70002926346397    3.40742540117852   13.15551868473214
C        14.45458823731995    5.48405706659282    8.65702297258808
H        14.91664816506422    6.45910429762466    8.50202320870060
H        13.56810640194637    5.39937926364883    8.02979415206329
H        15.16081944075161    4.69719666409143    8.39732595978880
C        15.51610087471462    5.72310564280362   11.23129614586190
H        16.25658412773993    4.96484359607811   10.98488423154128
H        15.35694583362283    5.71545154072484   12.30834795092025
H        15.85860650218579    6.70595718619414   10.90645961786916
C        12.98684542089285    6.80166254363553   10.62323664122335
H        12.69920534538786    6.89898791315324   11.66858765010033
H        12.08152776609505    6.72757244053048   10.02274983843792
H        13.57632580707435    7.66415022214146   10.31055701403864
C        11.25164536003792    2.54517017278306   13.86505714299933
H        11.27926076463501    1.49455998181167   13.57913657432105
H        10.33380855224444    2.99178383455236   13.48684695972976
H        11.27436973682630    2.62657874451061   14.95214312448652
C        12.49579671952806    5.04282244661532   13.95142092972966
H        11.63148106106341    5.53916047761092   13.51086517407646
H        13.39178985675317    5.63496166321164   13.76271053015832
H        12.34893163800190    4.91963098482272   15.02519321418094
C        14.01809698882152    2.70091555095472   14.19746139504916
H        13.77228192456981    2.77138746547165   15.25706714068008
H        14.94213498256030    3.23539977579158   13.98740724918734
H        14.14940258559426    1.65832886100173   13.91416849019380
C        11.86071386920717    2.41240823414502    9.04329337215587
H        11.07508413288954    2.91577230743571    8.48652035425251
C        13.15612498284704    2.37456964345464    8.55722783530541
H        13.40630749129460    2.84997804963942    7.61509414126724
C        14.15116855425665    1.74065978029999    9.31920966955211
H        15.17224793261360    1.69715615068677    8.95488269900885
C        13.77237651988279    0.90948143194073   10.41918005278796
H        14.52522559801044    0.28412493644052   10.88848570590467
C        12.44503492155154    0.82773850428578   10.82238133783278
H        12.14555004915025    0.15011053473700   11.61556896683460
C        11.50332850418737    1.69180608046761   10.23506769957942
C        10.12704008307540    1.84094832206969   10.71380542135902
C         9.22225074065187    0.79649384496659   10.83156423977112
H         9.54113012789577   -0.21112574442768   10.59757253423037
C         7.91889472965616    1.04789509113301   11.22139226914159
H         7.21585267019049    0.23289211890555   11.30987863831642
C         7.51376316273233    2.35023997743254   11.48158159425088
H         6.49123008086507    2.54671315162337   11.77027356652398
C         8.40935614021872    3.39634925699581   11.39002534417877
H         8.10924095299962    4.40977337496719   11.61085107698747
C         9.73201370772057    3.14817463666218   11.02978677841228

