61
CSD_code = PATCUK | q = 0 | S = 0 | Stoichiometry = C21H36NPPtS | MND = 4
C         4.97632382249047    5.78680016023396    5.71376441437657
C         5.29722689519471    5.66685167779374    7.05730530850330
H         4.56408677831626    5.88770804291248    7.81769659773490
C         6.56919040751302    5.26338457711593    7.48486795002910
H         6.75366162582276    5.19421745258170    8.54812941742058
C         7.58169766601662    4.95931487646890    6.60423595256151
H         8.55862892675925    4.65609981309319    6.95123585710072
C         7.30219362818371    5.04904338014084    5.24033774700429
C         6.01592579815791    5.45355769744877    4.84038386566219
N         5.96257148456463    5.45437289254957    3.45104801259630
C         7.20170523730721    5.04814175428689    2.99645221091224
H         7.41485044871667    4.96503880917553    1.94778842553619
C         8.03535608790442    4.80286970212509    4.04013126489265
H         9.05678959138715    4.47958331967578    3.97356886632725
C         2.52366733738380    7.09004741880095    6.51076754700739
H         2.23491218569042    6.31782634873128    7.23058294623104
H         1.63110824187876    7.70159852481462    6.32197756853346
H         3.24553341263306    7.74189775779982    7.01106236845013
C         4.14321784078837    4.33102300894041    1.59867644202196
C         4.39917606131986    3.11147248200243    2.48943337263736
H         3.91183199190424    3.24385758751152    3.45852152186842
H         5.46344215795689    2.96673048448552    2.66494348940207
H         4.00274977806910    2.20914226503434    2.02596954145710
C         4.97528474981114    4.24243427674594    0.32500131728428
H         4.73547898630071    3.31231667048351   -0.19163405370223
H         6.04035414212267    4.23523009998123    0.53750728155799
H         4.75246448183459    5.06335403018604   -0.35281645595776
C         2.65812861073941    4.36632770244435    1.23258655487153
H         2.37455200275290    3.44493407715392    0.72476126916476
H         2.42727871367274    5.20028017456361    0.57500995871346
H         2.05064351211396    4.46566388954094    2.12993543604408
C         4.78837976353640    7.40310219323282    1.83029287834669
C         4.86079147371842    8.43079547873340    2.96677763469210
H         5.70758717669489    8.21848995194414    3.61995617616169
H         3.94793457526400    8.40131213383201    3.57646907434398
H         4.97776276261188    9.43885052444054    2.57029438214966
C         3.60327146337232    7.72985664341913    0.92444162395468
H         2.66352262522173    7.58850441909897    1.45787216102432
H         3.59788274171264    7.10010137842429    0.03729991209448
H         3.65849326663220    8.76790381168297    0.59641816994463
C         6.09449088382670    7.45261857924130    1.04312461940733
H         6.20533770026074    8.44223386681046    0.59884878640776
H         6.11743419475856    6.72265656718983    0.23917406562628
H         6.94701816049384    7.28498458300599    1.69715651238615
C         0.01085687337578    5.60545618628271    4.58694070975464
H        -0.15707807380408    6.14616051970277    5.51819591769504
H        -0.93836141375168    5.45155501707717    4.07123725795374
C         0.72151556650109    4.29118522770253    4.85096595177328
H         0.75923147491096    3.68005584802964    3.95163391897008
H         0.20310191417024    3.73396432085196    5.62795798995579
H         1.75017505206021    4.49483507472668    5.19035216206940
C         0.27843235172818    8.30423520735357    3.79480608560331
H         0.15885526980677    8.45550359506631    4.86755784548600
H         0.99829526882398    9.02876020769828    3.41350659526569
C        -1.04552049751588    8.42112942222647    3.06458087483267
H        -0.91284067831407    8.21917435078453    2.00389435679917
H        -1.44351599617352    9.42735700840342    3.17948689703125
H        -1.77420643974796    7.71858161969982    3.46315696255701
P         4.44386554027999    5.79564862618121    2.76462181184915
S         1.05424459158090    6.67256968190369    3.52496714547437
Pt        3.26830980263505    6.32739700046814    4.75387952415530

