57
CSD_code = PATCOE | q = 0 | S = 0 | Stoichiometry = C21H33PPtS | MND = 4
C         1.04451551738467   10.87008091470932    0.91785311316110
C         1.97920633163592    9.94099558304516    1.31969188668442
H         3.03417969780052   10.13266608025103    1.19679366829434
C         1.60897319546234    8.70902073894594    1.88099524770369
H         2.38266535056994    8.01459894384202    2.17816729971174
C         0.29352963139534    8.37347543462283    2.02119584877372
H         0.00037912355008    7.40865106628735    2.41059094079763
C        -0.70830858703832    9.29731328571963    1.66387230418084
C        -2.07585853262592    8.98583163046391    1.80537083890648
H        -2.34636731688133    8.00764656034577    2.17814891446955
C        -3.04200161436898    9.89409448412195    1.47625368391150
H        -4.08890061467344    9.64063880530232    1.56685290667162
C        -2.68172637519401   11.17720888424391    1.04671719750336
H        -3.46610428943377   11.88243710320850    0.82083943491485
C        -1.35869672401138   11.52565017477743    0.91192771534466
C        -0.33199960686962   10.57226307265361    1.15749708784875
C         3.27708261316869   11.97414265991832   -0.68868195494405
H         4.15206961341166   12.10353436788289   -0.04022210363474
H         3.45866551643415   12.56526386733855   -1.60145946110158
H         3.26803652069316   10.92634631915213   -0.99812611654688
C         3.37981618601583   14.86162217358747    1.48581118654021
H         4.21837069042059   14.20761945041727    1.26476190701073
H         2.74435994014969   14.39895073529323    2.23770527359462
H         3.73026738647988   15.83040885450352    1.83571750495921
C         3.71062539567912   15.50560932826615   -1.17203901740674
H         4.18944361922324   16.42208440153215   -0.83725576966413
H         3.25586920761247   15.65931289240791   -2.14558033336749
H         4.42898359282860   14.69256185842913   -1.21993125228860
C        -1.43357596830936   14.30853096307963    1.82091873551878
C        -0.61529284989697   13.88675907373227    3.04598643731025
H         0.45202659903316   13.92724437497022    2.82253809635466
H        -0.85718473245126   12.86390724946511    3.33360661930303
H        -0.81695403263603   14.54233025842114    3.89202939846533
C        -1.08485996061450   15.74892312945968    1.44663065728526
H        -1.22320845037934   16.40530447435589    2.30563311490552
H        -1.72325409038602   16.10993650979125    0.64274446521868
H        -0.04565651171112   15.82066017607472    1.12604633262709
C        -2.91675785619003   14.20102710107475    2.15761250049733
H        -3.15300761880785   13.22129278247074    2.56405328964656
H        -3.54750500660105   14.39145323742843    1.29430710414651
H        -3.15875197803467   14.94385043127391    2.91866131179767
C        -1.44772179150624   13.48959568124324   -1.24828854872686
C        -1.19601942306419   12.17372505626877   -1.99139381688292
H        -1.32678572642476   12.31261334999856   -3.06390848493074
H        -1.87520476996772   11.39160826453136   -1.65915721321743
H        -0.16651790324467   11.83645774652597   -1.80721191684087
C        -0.56727292388775   14.56325537299525   -1.89136580478362
H        -0.86222332380186   14.72410992077302   -2.92816595180979
H         0.47429862301377   14.23221027926595   -1.88105098279000
H        -0.63306630359613   15.51243089554269   -1.36485504812316
C        -2.91412851434651   13.89154592704248   -1.34635544875051
H        -3.09187144643754   14.85717926945992   -0.87767764330341
H        -3.56312433274973   13.14848210628757   -0.89119662701611
H        -3.19328037021381   13.97547433519118   -2.39728670198267
P        -0.73063129316196   13.17851189378024    0.47264267482505
S         2.37833117811491   15.09268997635248   -0.01174997762620
Pt        1.51202530942452   12.66216049188482    0.10938547687689

