20
CSD_code = PATDUM | q = 0 | S = 0 | Stoichiometry = C9H6AuCl2NS | MND = 4
Au        6.04850029747716    5.57866165429485    2.28353780576153
C         7.14320780251198    3.52368207401045    4.15048486382194
H         7.44777167704403    4.41891836381444    4.67569079267902
C         7.43623352017156    2.25137864772513    4.64610350919919
H         7.97808159192761    2.16413370868701    5.57355594630909
C         7.02834379440432    1.14902968856724    3.94222986282790
H         7.23807159761146    0.15019687708517    4.29580225949460
C         6.32210098149372    1.31359727942654    2.73455580099144
C         6.06095815331401    2.64393503753361    2.29427044876648
C         5.35551650083443    2.84868638791888    1.08891378433248
C         4.92867067568150    1.75794185112710    0.35403570059235
H         4.39109260489489    1.93298514016545   -0.56394519074080
C         5.18702393405146    0.45881395366506    0.78923637676970
H         4.84095243353981   -0.37153314485937    0.19333411880797
C         5.87060892040614    0.23177580220798    1.95687199967204
H         6.07302872962646   -0.77147457748169    2.29782609969307
Cl        5.51891873940977    7.54099987887111    1.38205920381371
Cl        7.06810968178737    6.67038630196258    4.02795472339626
N         6.48524906558874    3.70772515054091    3.02494720470341
S         5.02225929822362    4.46335992473772    0.52663468910864

