34
CSD_code = PATGAV | q = 0 | S = 0 | Stoichiometry = C8H22ClCuN2 | MND = 3
Cu       -0.91893299028299    2.44388452047921    4.52183272207860
Cl       -0.92227162559861    4.62947014308834    4.51800880474774
N         0.63562805959372    1.34279938786633    3.66002808474002
H         1.46691362630491    1.64985011840841    4.15836152977126
H         0.49727175722965    0.35356379845984    3.85008628390595
C         0.81336971447962    1.56494188260649    2.21266585057761
C         1.86815371818117    0.60197269914768    1.65808649126413
H         2.82041238333719    0.74103404005693    2.16699867077609
H         2.02223591159344    0.78003935973199    0.59764260019144
H         1.55412279184288   -0.43305014686750    1.78717522372534
C        -0.53662514503338    1.32107393514926    1.54182800806408
H        -1.27221841363664    2.00887593722660    1.95502100913095
H        -0.87429845185878    0.30050052258688    1.71374122385021
H        -0.46638362206461    1.48641138193520    0.47062883786255
C         1.25121288999952    3.01280459962200    2.01699714449749
H         0.57301993833364    3.67781966337427    2.54940396484969
H         1.24348408070730    3.27675398909479    0.96365394516240
H         2.25627390797667    3.16622773283717    2.40483623846420
N        -2.47205890644485    1.34277902514139    5.38622716916504
H        -3.30382923615286    1.65014089717332    4.88889870644716
H        -2.33420111800803    0.35352591403512    5.19587627010094
C        -2.64802879050233    1.56489743085361    6.83380541905809
C        -3.70235273986346    0.60214932101586    7.38959554744001
H        -4.65488303273190    0.74199529058753    6.88147980291488
H        -3.85547566367733    0.78023889607956    8.45020514047732
H        -3.38912582981929   -0.43309014301052    7.26002826718588
C        -1.29762548556933    1.31983811386345    7.50332493779831
H        -0.56227747981371    2.00744434284304    7.08948776687247
H        -0.96045883560663    0.29921065587321    7.33070933613706
H        -1.36648707552746    1.48492345101961    8.57465682036865
C        -3.08482292098814    3.01294876243403    7.03045335705638
H        -2.40672789933063    3.67778128894670    6.49771023874501
H        -3.07609078166438    3.27657165706429    8.08385848893335
H        -4.09012273541556    3.16697153128357    6.64348609762348

