51
CSD_code = PATJAV | q = 1 | S = 0 | Stoichiometry = C23H23N2OPRe(1+) | MND = 8
Re        3.10857643057720    2.62483036221638    0.58186460978030
P         4.77787230348891    1.53659081718327   -0.78040503369096
O         3.83093501506122    1.19530158871164    3.01198240344262
N         3.54451933156234    1.73629187669136    2.02044380020679
N         1.44126359495077    1.16378069351997   -0.00685616791117
C         3.87007226459049    4.80111196081391    0.54298111374955
C         2.80699822786446    4.75664830299254    1.49587767873530
C         1.62356011180104    4.42608298249911    0.80634497766534
C         1.92732943611824    4.35787816202285   -0.58870543911958
C         3.29231520905329    4.60872243615891   -0.75412587982363
C         4.21078132998909    0.92922088005304   -2.39874392668265
C         3.12672992003242    1.53705836205327   -3.02637685749624
C         2.71283219726817    1.10959480614005   -4.27497947752876
C         3.37765288376054    0.06818019135082   -4.90272649364146
C         4.45559336651856   -0.54275071348352   -4.28096304546334
C         4.87478459556159   -0.11750921336490   -3.03288094174361
C         6.14810490401398    2.66266245573340   -1.14026417143015
C         6.49992868805347    3.04228219164459   -2.42986483890696
C         7.54822904114648    3.92831720116850   -2.61752742331390
C         8.23862728157580    4.43311670993974   -1.52815242149278
C         7.88517622050098    4.05595848345990   -0.23971738210900
C         6.83850809327361    3.17687511817127   -0.04241982652420
C         5.55687673495025    0.08769735744287   -0.01321033610584
C         6.92151415243323   -0.16122265710795   -0.11366822160839
C         7.45546177624600   -1.29699953449085    0.47085029065503
C         6.63613933364180   -2.18400000622356    1.14923409777947
C         5.27405176655375   -1.94100397647067    1.24461047268404
C         4.73446226200111   -0.80873950190479    0.66556569141430
H         1.62770778103768    0.60681798954512   -0.84152697035767
H         0.61486786157704    1.73429127753613   -0.19032849999704
H         1.19505809836568    0.52019677558416    0.74650404198788
H         4.86392651250274    5.17747190932050    0.72706204742518
H         2.89097143080351    4.98823168957514    2.54553083644617
H         0.63437535706879    4.40015847894974    1.23485375519609
H         1.19763746695687    4.27342136184721   -1.38126691212475
H         3.81664967201324    4.72620258270116   -1.69014845005794
H         2.61798364328199    2.35881000400075   -2.53853506126298
H         1.87615891320604    1.58860151617380   -4.76105509807252
H         3.05606378079646   -0.26550019322764   -5.87689521823686
H         4.97299531364052   -1.35264380028025   -4.77145016971875
H         5.71441788248468   -0.59296269538977   -2.54743829293917
H         5.96202249399539    2.64667420200697   -3.28010720027131
H         7.82490768186575    4.22456734513819   -3.61781436942476
H         9.05349237088081    5.12351104157250   -1.68163250015959
H         8.42573761519106    4.45098130004322    0.60679738996710
H         6.53911539662199    2.87306336179865    0.95361046750377
H         7.56331278590405    0.53151932084189   -0.63905034821235
H         8.51525809543267   -1.48706811861684    0.39801584467187
H         7.05898284787521   -3.06417313326809    1.60780104706479
H         4.63767340761165   -2.63107338109514    1.77622926122552
H         3.67378711829880   -0.59637617167863    0.73987714782542

