51
CSD_code = PATKEC | q = 0 | S = 0 | Stoichiometry = C22H23ClN4Pd | MND = 4
Pd        8.03543036185118    1.04242305551527    2.07187066713486
N         9.62476431373774    1.99416841678641    2.81800490160937
N         7.28753776339299    1.48438020277775    3.88820013427628
C         9.41504320115237    2.55395203605827    4.04108140614472
C         8.14203116873091    2.28902614149926    4.61400345827197
C         6.17488660376809    1.30794148142978    4.60911080714799
C         6.28735785600657    2.00254509214302    5.81464484695004
H         5.54323553821302    2.03780280698131    6.58773033174646
C        11.64945788864781    3.45131057287882    4.01661546899130
H        12.44016780159802    4.02633016493763    4.47572345218344
C         7.52727983074701    2.63002245590300    5.83401700717196
C        11.84718992071932    2.84748418014077    2.77605292047017
H        12.78534492379711    2.93331228668803    2.25309693310420
C        10.80456715139054    2.13542630591517    2.21889173328204
H        10.91664615834467    1.66155876226430    1.25004426022795
C        10.43953498314597    3.30389333866051    4.64891225671826
H        10.26124067902879    3.75534723826790    5.60850559984274
N         6.41037150573764    0.17229758758572    1.33511078404805
C         6.16346375682869   -1.15080127157469    1.39815135128904
C         5.57475435661611    0.97080621945759    0.67574567553386
H         5.83749638518947    2.02931014540838    0.65120681032842
C         7.09342890904987   -1.98131607287013    2.12988551441106
C         5.01961699980740   -1.68471112378290    0.79034354410642
H         4.85206475982959   -2.74782123479742    0.82879513852258
C         4.42992965417195    0.50743811445576    0.05676335780585
H         3.77816763818335    1.18984557981898   -0.46404944757908
C         4.14794824541450   -0.85288912470043    0.12112531310144
H         3.26683215399633   -1.25268740389306   -0.35747675623611
C         6.87496567069988   -3.08083325976556    2.95330718316561
C         5.02298838377098    0.46542850997839    4.17324611412186
H         5.35962868241773   -0.54317268131565    3.93220968198055
H         4.53472512321428    0.88698529305999    3.29290474437018
H         4.29281567449930    0.40773934898950    4.97664151857053
C         8.04845731149854    3.48135401818091    6.94120243889625
H         7.29457763622010    3.56216968762147    7.72131752918941
H         8.28388189516999    4.48579516610203    6.58788897054762
H         8.94826549213952    3.04873268006579    7.38030421922454
C         5.57875144196219   -3.74242092822572    3.27763670437477
H         4.75723065290381   -3.02864307831193    3.26324281429807
H         5.63237942956960   -4.19580583101989    4.26470874684333
H         5.35857169240130   -4.53332824220858    2.55918753010553
Cl        8.94568066829959    0.66205863551190   -0.00501806021845
C         8.12502380189533   -3.43733497685338    3.49242747504462
H         8.30057124328398   -4.23609674362986    4.18576002810291
N         8.44062369300796   -1.67978136469914    2.18941777690466
H         8.91660875176503   -1.09138366637905    1.49429042218780
C         9.07190323107980   -2.57714018336482    2.98480033489688
C        10.54193955547930   -2.50118442122197    3.18739439420954
H        10.83940535603498   -3.09925126065444    4.04359912735449
H        10.83797383161605   -1.46486927701972    3.35389179796261
H        11.07164027193628   -2.86741337874891    2.30723103726469

