81
CSD_code = PATKAX | q = 0 | S = 0 | Stoichiometry = C38H32N6NiO4 | MND = 6
Ni       12.85080359032865    2.70831057155796   -0.00373371958261
N        11.62920323292860    0.14983634624053    2.91922005559455
C        12.66046983767269   -0.58607147109176    3.50299723380667
C        13.99874490498189   -0.29425159435619    3.24541216891423
H        14.25494221727598    0.53470255074394    2.60504631386376
C        14.98879991953960   -1.06903426414607    3.82319418322845
H        16.02460393531874   -0.83944011623491    3.61852656205958
C        14.66454999791064   -2.12666249303375    4.65620428431329
H        15.44432013671801   -2.72454798665071    5.10403376973722
C        13.33284475642621   -2.40969808326484    4.91519668219672
H        13.07161899560414   -3.23022660957878    5.56727164393753
C        12.33248469801130   -1.64843801359086    4.34376155222640
H        11.29133569466406   -1.85446479677537    4.53165600543873
N        10.32790285303049   -0.18730035509045    3.16232465881458
C         9.56540380249936    0.61476993551493    2.47370708992546
C         8.08817871255944    0.44846826873428    2.49572082035570
H         7.67874053889652    0.54787734226486    1.49277468821465
H         7.62207425458711    1.20188257371242    3.12826560915340
H         7.85104336868668   -0.53330615275119    2.89691355396232
C        10.35616640172411    1.53181140026927    1.71372053268939
C        10.08640076292226    2.51887311005064    0.74772665300136
O        10.96348658975973    2.99612023780440   -0.00879556493039
C         8.70544879382429    3.04861331827045    0.58728781896312
C         8.15689500776027    3.14963325137204   -0.68658837769665
H         8.73490443838394    2.81242260548513   -1.53381974766972
C         6.88516357124139    3.66671778783050   -0.85339455570472
H         6.45613070258762    3.73166287237909   -1.84269556822317
C         6.16553009826401    4.10804472255327    0.24509251532814
H         5.17367093911382    4.51509501785542    0.11382857732901
C         6.72270557687805    4.03875908500315    1.51169131322051
H         6.16868163571895    4.40001935084248    2.36574378813002
C         7.98886406073189    3.50997536921647    1.68594398203505
H         8.43719024093430    3.47135286114358    2.66771384034636
C        11.70881117736674    1.18501517358536    2.02285065099418
O        12.78143766717752    1.69207503652056    1.61283937572803
N        13.06007623326751    4.75885469582265    1.07006918712471
C        12.80098947197261    5.78362412178536    0.62345651024764
C        12.47478923073149    7.05458803916962    0.04783461687595
H        11.88769740769443    6.89636470095734   -0.85843556204929
H        13.39200625154776    7.58427089466536   -0.20935214801092
H        11.89847864455690    7.64643287619355    0.75815324103149
N        14.06921193267149    5.28182045498231   -2.91224385074026
C        13.03574310512751    6.01562581778752   -3.49514631449192
C        11.69834917951479    5.71843969889291   -3.23943326816090
H        11.44447566760292    4.88733926205550   -2.60102098396756
C        10.70614633806751    6.49143190071338   -3.81572226153163
H         9.67097735446754    6.25774939553396   -3.61248774319706
C        11.02740427726075    7.55266139904468   -4.64535477104893
H        10.24589982080611    8.14916245578198   -5.09197886586125
C        12.35828342184954    7.84110255644660   -4.90244252091028
H        12.61715399925897    8.66450078764144   -5.55183950712779
C        13.36080372370409    7.08151639967296   -4.33251965902675
H        14.40137665835007    7.29175535341195   -4.51908353073688
N        15.36953902440347    5.62841872103273   -3.14738327338106
C        16.13391686132466    4.82578327527124   -2.46124700840536
C        17.61025494710535    5.00119199724956   -2.47518769683386
H        18.01679115506118    4.88830042759867   -1.47251477256470
H        18.08295855648274    4.26090498049171   -3.11811958173458
H        17.84304964603921    5.99049310938296   -2.86004044799613
C        15.34545560177937    3.89891647597296   -1.71110945513214
C        15.61696159952257    2.90660008485523   -0.75078633237294
O        14.73997182457354    2.42296189832541    0.00176354810551
C        16.99849110587364    2.37791961808258   -0.59262791262571
C        17.54255605404440    2.26098512305528    0.68185887535739
H        16.96118992114211    2.58705240811288    1.53116252000740
C        18.81399972806131    1.74248318138684    0.84665880473406
H        19.24030572683333    1.66537381996078    1.83597917210708
C        19.53772226181044    1.31555736818493   -0.25487579983583
H        20.52944085397612    0.90771735489370   -0.12474273678295
C        18.98526183571434    1.40111118317535   -1.52260170732132
H        19.54267697211775    1.05113367621192   -2.37918023153484
C        17.71948850252690    1.93145536449979   -1.69464423560402
H        17.27448112038499    1.98196593074153   -2.67708438866606
C        13.99203644767854    4.24031992472375   -2.02297984353725
O        12.92072051740024    3.72444632714894   -1.62069605230016
N        12.64784169349388    0.65840365723611   -1.07602163741588
C        12.94480337079275   -0.35946543174006   -0.63723559254330
C        13.31183475390693   -1.62343205338909   -0.07075718152586
H        13.81314564538039   -1.45467188110681    0.88390202060520
H        12.41698118917449   -2.22290193374064    0.09568787364491
H        13.98370725289384   -2.15026227054812   -0.74726788455145

