71
CSD_code = PATXUE | q = 0 | S = 0 | Stoichiometry = C28H32HgN2O2P4S2 | MND = 4
Hg        6.55731373754849    6.69195324365833   14.83191891182426
N         4.89177416954459    4.35264999726072   16.81391407819860
N         7.34918039854641    7.77227640927377   12.21624799952865
O         7.02536731555430    5.96852027939923   16.80080170812360
O         8.37954904304164    5.99988325219848   13.84726274645936
P         6.51395468716059    4.56523060779293   16.98066126122254
P         4.07394326360586    5.35607997791995   15.88175216074647
P         8.65993493417686    6.89643995252835   12.67555435926977
P         6.91523984615905    9.06060819683098   13.06080457698837
S         4.66744292308720    5.49995236567981   13.95177121909825
S         7.13821315228245    9.01352242422511   15.07032508696553
C         7.37225755302979    3.42236842985505   15.84419070126041
H         7.16112416254837    3.71145446560839   14.80933165601630
H         7.02903707070047    2.40472714347361   16.01521644097074
H         8.44358733037495    3.50566213182942   16.02719877611077
C         6.89771022267941    3.97937614441071   18.65488120137766
H         7.97940031218798    3.94377233257199   18.77080738740782
H         6.46321164624138    2.99640466846083   18.81288590781947
H         6.48094154763868    4.69019814244264   19.36696725420708
C         2.37716188145802    4.75652445821113   15.86737303612852
C         1.42194236039939    5.42551260499669   15.11196285100126
H         1.71106035702694    6.29139562407338   14.53219544001105
C         0.11995952171409    4.96271353665752   15.09945734163395
H        -0.62943900053785    5.47394658878517   14.51294717360413
C        -0.22324523421311    3.83973107753444   15.83708933261714
H        -1.24147293473288    3.47910330049691   15.82279627725088
C         0.73326434662109    3.17571712100517   16.58810681776168
H         0.46062002963127    2.29918212090109   17.15760673372129
C         2.03846301751970    3.63333028510043   16.60712452107839
H         2.80760700897990    3.13664981917799   17.17959705403329
C         4.02066700921914    7.05073568049723   16.56282262282489
C         4.30550948973401    7.20476832969148   17.91489265207131
H         4.52588270870952    6.32584561700133   18.50650586773740
C         4.31945758988447    8.46753951008596   18.47583648491787
H         4.55851785150710    8.58885445714009   19.52210932152161
C         4.03638702233694    9.57514292722387   17.69299962334493
H         4.05978644662119   10.56270008077043   18.12939976400548
C         3.72570666332738    9.42194484780877   16.35167168673191
H         3.49683585250472   10.28428852419470   15.74320655592437
C         3.71836773102730    8.16251324441960   15.77785129690047
H         3.46680052521262    8.04146669943953   14.72986309088672
C         9.03817913479545    5.89760839707742   11.21204497053872
H         9.85839081443735    5.22331913020189   11.45322910429838
H         9.29420591977066    6.52612748563429   10.36440907035142
H         8.14039734850292    5.31930939830901   10.99075770165208
C        10.11232140221184    7.94168586909681   13.02503306467423
H         9.89995011796864    8.52251910655860   13.92459308386691
H        10.31345304973559    8.60903932625050   12.18998354646333
H        10.96436617074921    7.28937685230377   13.20958793034309
C         7.78812884622100   10.53703742904746   12.47793035738819
C         8.49501434173287   11.40112649534206   13.29969772022406
H         8.51356505227179   11.22460064968477   14.36602821402684
C         9.15993531306696   12.47687114930674   12.73623156263961
H         9.71372956566907   13.15591727814979   13.36784263528873
C         9.11668732199109   12.68314576585840   11.36695897810950
H         9.63840212859443   13.52383428450970   10.93344708481369
C         8.40794643581565   11.81585493860578   10.54825463320773
H         8.37722415004645   11.98136101682386    9.48119927932684
C         7.74273124383619   10.73977595569179   11.10285410779740
H         7.18671322213198   10.03944374970826   10.49225965868209
C         5.17592450781847    9.34194135672220   12.67029056905864
C         4.60132503514098   10.53956446868293   13.08153208852228
H         5.22257673241151   11.27936926977477   13.57139353448654
C         3.25353631497668   10.75584959621581   12.86546756254342
H         2.79622431168982   11.68394697146457   13.17756619001939
C         2.48644847224458    9.77584462433443   12.25162591392182
H         1.43074513043789    9.94351097375275   12.09387431744632
C         3.06530797720087    8.58549976395733   11.84017483909000
H         2.46420727855815    7.82495633317664   11.36388776243685
C         4.41632110785787    8.36259386156509   12.04451776761515
H         4.88761799145004    7.44118188134822   11.73041777175769

