37
CSD_code = PAVHUQ | q = 0 | S = 0 | Stoichiometry = C16H14N3O3V | MND = 5
V         7.27714860676118    5.20891669421085    5.46175569216938
N         6.02101692747971    4.08302766736077    4.20620930388049
N         8.71462132378267    3.89143074064627    4.57326123544050
N         5.03703374200976    2.83800651995826    2.66481929398563
H         4.92304440085989    2.15386296379561    1.93472984380424
O         6.85581997432708    6.46694670283461    4.68320140266064
O         6.34526544369944    4.88447011226102    6.63466654134193
O         8.70697322421264    5.80809856917212    6.33707579566059
C         4.69067695670058    4.43707086110760    4.16046571529516
C         3.97561319135502    5.38348878804315    4.88854481541566
H         4.48713104650977    5.97897794916472    5.63407283172271
C         2.63050950477096    5.50543795811185    4.60470325341218
H         2.03851089025053    6.22700975476685    5.14627290654278
C         2.00382216610721    4.72100291850259    3.63169956734561
H         0.94873326469455    4.85506447924054    3.44642012578037
C         2.69971633497929    3.77939523233177    2.90018152813653
H         2.21793315235077    3.17448380774082    2.14731476108498
C         4.05159550133077    3.65077073994174    3.17992366349742
C         6.19397120146727    3.14441224987791    3.31477670385423
C         7.48428788037242    2.46461864245784    3.01019663346240
H         7.96188731258085    2.96160759629133    2.15681541465281
H         7.30025371649423    1.42201153811231    2.73697592452441
C         8.42638958118444    2.52675918638128    4.22079239825130
H         7.94088108816714    2.04661727639649    5.07847652005410
H         9.35084816576898    1.97629379778976    3.97731563673437
C         9.84501925102731    4.38619609822828    4.22646014847936
H        10.54795993965453    3.76678590556324    3.64758565129618
C        10.31090659674017    5.67758381045637    4.60542505757721
C        11.43933799417582    6.24658339592429    3.99349203152000
H        11.89848787257785    5.72545375669322    3.16366990481183
C        11.93811793398192    7.45236895203169    4.41534687306097
H        12.79104542527925    7.89395510312642    3.92336466052026
C        11.33683376494289    8.10726006964395    5.49530635864285
H        11.73397477423396    9.05603215994602    5.82644966208169
C        10.25852715588449    7.56068748978752    6.14192010610448
H         9.78923298867748    8.05729103131997    6.97914274451353
C         9.68907170460717    6.33851948078119    5.71026929268120

