51
CSD_code = PAVHIE | q = 0 | S = 0 | Stoichiometry = C23H19N4O4V | MND = 6
V         7.82126406397763    6.35705572042097    3.63783306587343
O         8.15433081978272    5.40755178973138    4.78236160727677
O         7.86393090995806    8.00791398623728    4.39253043358648
O         9.37314782317035    6.47051970464649    2.98522804745160
O         7.45928720128236    7.43290034728782    1.85604453659851
N         7.41101543591646    4.80307177327826    2.34614458999997
N         5.76379838235575    6.39400372159022    3.96913705866560
N         6.57859739002371    3.80602081117917    0.56066325709723
H         5.93831214720450    3.58128646550844   -0.18333918089474
N         9.69342894668792    7.18294672936815    1.93756314776252
C         8.35141137310960    3.91190958630326    1.88952080359102
C         9.61122251775248    3.59137726081686    2.38389584758242
H         9.98036651020203    4.08656520734108    3.27200957472557
C        10.32934617409929    2.63749972941911    1.69183433941906
H        11.31349572926972    2.36062019107957    2.03721866674589
C         9.81838783504503    2.01281413667490    0.55055233227971
H        10.41984954847847    1.27367112499247    0.04334827996034
C         8.56398451568250    2.31223248168317    0.05573670217451
H         8.16974954917784    1.82442826513381   -0.82254360474649
C         7.83615398349161    3.27029168735899    0.74376224055311
C         6.38316417699866    4.72215370824043    1.54578113403228
C         5.13788437258450    5.50298166682541    1.75016841792178
H         4.30601892920560    5.04698754657367    1.20842004472190
H         5.29100096794059    6.52277626997077    1.38338333760917
C         4.82564796010136    5.56192914638873    3.25116303558305
H         3.79838152114436    5.93469594563486    3.38738166832390
H         4.88187087037356    4.54282123839905    3.66370930658430
C         5.32194217892453    6.95986528106032    5.03275077151635
H         4.27622921304587    6.78202120068434    5.32607484355109
C         6.03403569620320    7.85331697215083    5.88149725058555
C         5.44335410549429    8.31005711266475    7.07249258717108
H         4.47757563359292    7.91442925021787    7.35704007053450
C         6.07500008806635    9.22686800017238    7.87309547921593
H         5.61761641305240    9.55844314195283    8.79252632895901
C         7.31842832175142    9.73781092944628    7.48762589747817
H         7.81240869546544   10.46379591371242    8.11734844351350
C         7.91452020052447    9.33258941434859    6.32197104978182
H         8.87552601290862    9.72095186260449    6.01618179342199
C         7.30635510508187    8.36302209199631    5.48734637444883
C         8.60131381616878    7.71537810533196    1.39705547353950
C         8.77218820217408    8.59225687391433    0.22421753914604
C        10.02515415668478    8.77530141159660   -0.35727125349070
H        10.86917688889485    8.25335217877258    0.06412248673135
C        10.16404377618577    9.61288018788069   -1.44712824779582
H        11.13603359172744    9.75493865771096   -1.89700548335634
C         9.06121953442703   10.27488043348256   -1.96623519396942
H         9.17522411964575   10.93128514368834   -2.81688076859450
C         7.81378205862100   10.09803683584846   -1.39074911057239
H         6.95478806172450   10.61754451932725   -1.79121776417640
C         7.66863363875484    9.26010625065849   -0.30112294992747
H         6.70290083586151    9.11964198869165    0.16355569181149

