89
CSD_code = PAVHEZ | q = 0 | S = 0 | Stoichiometry = C45H41P2Re | MND = 7
Re       -1.60551663919869    1.91864528868750   -1.92076723053356
P        -2.10665275176732    0.91230959068242   -3.93110336200199
P        -0.18283335984275    3.65187616256266   -2.45432665916271
C        -0.88743773852456   -0.35500149490383   -4.48628114177501
C        -1.00971590639056   -1.13254571755225   -5.63103187808227
C        -0.03900646789518   -2.07167547697770   -5.93497263248194
C         1.05668022943136   -2.24255758021696   -5.10493423722938
C         1.18817198488519   -1.46708738856231   -3.96350255020273
C         0.21950344080941   -0.53036783090086   -3.66266481063970
C        -3.61899623390937   -0.10230783131831   -3.79433128013810
C        -3.58511054460616   -1.45834939097351   -3.49301596895836
C        -4.76465668343746   -2.14883567610680   -3.27236851283808
C        -5.98105838673328   -1.49011519962886   -3.34020281124893
C        -6.01950116225089   -0.13391810048068   -3.62782823407421
C        -4.84416933274148    0.55797724726974   -3.84788310585003
C        -2.47347606040651    1.79557422353919   -5.49691720510034
C        -3.24699529049471    1.23792716677725   -6.51081164789198
C        -3.48566081818030    1.95075486631008   -7.67251312974326
C        -2.96472607236365    3.22435980971369   -7.83148817444869
C        -2.20909794735869    3.79120999854157   -6.81763202396928
C        -1.96807458041939    3.07876158053014   -5.65836870302159
C         1.24498219601285    3.46391570657387   -3.59073995528377
C         1.15033002310794    2.52262729438301   -4.60802812696593
C         2.19641219956892    2.32811687755569   -5.48946452465541
C         3.35566268048710    3.07635329460749   -5.36070689083409
C         3.46381694748324    4.00811196146313   -4.34170764724666
C         2.41765417131649    4.20162844104587   -3.45677756925127
C         0.71572757436803    4.20582579000795   -0.95748630251872
C         1.65491525358033    3.31054558258415   -0.44776262523755
C         2.31340452629257    3.58035873823780    0.73468229688709
C         2.02641304342037    4.74489550052538    1.43301359774457
C         1.08687743755511    5.63263544963362    0.93871419560340
C         0.43112563593865    5.36716863126022   -0.25275599444089
C        -0.92483044491611    5.23705109645331   -3.02315696695275
C        -0.18840834108394    6.37557823913444   -3.32619498609961
C        -0.83926475575513    7.53485006422117   -3.71219381456575
C        -2.22170913872067    7.56727495357380   -3.79601614889989
C        -2.96019795133616    6.43123770957673   -3.50351222250292
C        -2.31074918027863    5.27230811842003   -3.12461752302914
C        -1.44989628645818    2.00939683660778    0.30140774096266
C        -1.77508511258861    0.68160757763668   -0.04164647470197
C        -3.05017772303479    0.68702728788171   -0.64328857807637
C        -3.57914593620193    2.01613788312146   -0.58056956674287
C        -5.01222589342800    2.43957038463514   -0.71829989580466
C        -5.13255552977582    3.95652302182136   -0.55840548235519
C        -4.34770492169049    4.43794845377176    0.66232853197935
C        -2.84420554615746    4.24492315841077    0.44743663731751
C        -2.58457613163648    2.83487376180341    0.00249980889472
H        -1.85854161019887   -1.00686647638518   -6.28527137108338
H        -0.13815817334988   -2.67545897352049   -6.82566748970498
H         1.80972166139539   -2.97767152072115   -5.34884986842851
H         2.04469422249051   -1.59454894291807   -3.31739488980819
H         0.30123759965549    0.11382658411472   -2.78040271868074
H        -2.63381124432959   -1.96962884906366   -3.42882839354703
H        -4.73428788071269   -3.20409753891289   -3.03967221336999
H        -6.89906032041813   -2.03146354472914   -3.16265749060391
H        -6.96896078422788    0.38085389312073   -3.67371648920430
H        -4.85038616912709    1.61817490968709   -4.06806032404080
H        -3.68587961523727    0.25772635157935   -6.38727361043279
H        -4.08766850959056    1.51229477285757   -8.45572346098660
H        -3.15761777017913    3.77610971000785   -8.73998556981166
H        -1.81229425270589    4.78980757613530   -6.92695262013299
H        -1.39919244439491    3.50139458827081   -4.84073684637556
H         0.24211079524980    1.93818072225492   -4.67331641938779
H         2.10892258902966    1.58866537486628   -6.27190632609990
H         4.17780899408314    2.92798197588247   -6.04553745134412
H         4.37204673691460    4.58328097152834   -4.23064605384469
H         2.52759625494667    4.91142634840832   -2.64876745166974
H         1.84928891469490    2.39732247831077   -0.99998665420475
H         3.04347809953580    2.88353643212966    1.12208633121086
H         2.53197891316599    4.95428683947491    2.36467139103474
H         0.85822192734893    6.53632401129805    1.48588744882220
H        -0.29948590700009    6.06600848735569   -0.63490068173949
H         0.88915543209388    6.35868412239169   -3.26295876596732
H        -0.26461614269911    8.41940523395017   -3.94709779460602
H        -2.72253652343384    8.47688033875136   -4.09416381953913
H        -4.03804606892178    6.45341239263363   -3.57617483945618
H        -2.84948231618076    4.34754851375805   -2.91444556883094
H        -0.60981995237672    2.32113279274740    0.90915464434975
H        -1.17871534319357   -0.19856646464080    0.16725893078137
H        -3.62180897359936   -0.19125762005495   -0.91277917062550
H        -5.43817787074693    2.11995998683275   -1.67404833436108
H        -5.59326623556330    1.94407287919036    0.07252892684923
H        -4.74118033374048    4.45106588905802   -1.45117875771264
H        -6.18585702642234    4.22951110227329   -0.45580814973705
H        -4.55803499609961    5.49363971457668    0.85011341887769
H        -4.66771133692163    3.87050814486756    1.54154305176116
H        -2.49752509026314    4.96549627870813   -0.30353043636445
H        -2.29189772371483    4.45011445188254    1.37118967411025

