94
CSD_code = PAVMAA | q = 0 | S = 0 | Stoichiometry = C33H52BClN6Zn | MND = 4
Zn        0.64364556682690    0.37948798362013   -0.07936342820056
Cl       -1.41619118105790    0.71253742061395    0.46695396840638
N         2.08813764091389    0.31754182341300    1.27760153093377
N         3.28785209415833    0.18124647106729    0.69302860669927
N         1.20741161383810   -1.28989474109792   -0.98919111421960
N         2.54112044547747   -1.33359734175158   -1.12615254894328
N         1.62287105510699    1.57587260463840   -1.32637209735034
N         2.84729993628978    1.08812399887624   -1.58094037337368
C         4.25186510344530    0.31620551811521    1.61359432827761
C         3.65910824226637    0.54182558733189    2.84235474657421
C         2.28594069622690    0.51851315109378    2.57709726067583
C         1.20622304985602    0.72618741853367    3.58029892290502
C         1.84635617046659    1.45685332573137    4.77252317090939
C         3.13284538144189    0.76997815850272    5.23717356066530
C         4.24600110592971    0.84136158778607    4.18387109519664
C         2.90701302022561   -2.54769635569362   -1.55868992263181
C         1.77084593039935   -3.32009525534545   -1.71525911241985
C         0.71914708822141   -2.47146423435352   -1.35430326332938
C        -0.72327433201994   -2.83825487484715   -1.33632859370696
C        -0.78716595321679   -4.37353041176832   -1.27750937491521
C         0.10479024834225   -5.02177524165060   -2.33902752058833
C         1.59486958978763   -4.75650798400916   -2.08865430288476
C         3.41496684614249    1.79642157079059   -2.56626955018573
C         2.53167382311312    2.78155052647731   -2.96592150428843
C         1.41350884226798    2.60352878662726   -2.14495472157374
C         0.17159445642176    3.42664866619798   -2.15758186871185
C         0.23463232702717    4.40531695579317   -3.34490476298311
C         1.63274258831022    4.94779631409913   -3.65126892878368
C         2.61599145605244    3.83246460290178   -4.02346788221589
C         0.49973588499626   -0.57974748643437    4.03187625907703
C         0.48166501145466   -1.66166690261614    2.95605000565025
C        -0.93356280301563   -0.25901504360476    4.45070220363639
C         5.39240194147353   -0.10885339127192    4.52797928503750
C        -1.53467116531143   -2.28359317003358   -2.53703076748021
C        -0.98800778102545   -0.96605800006544   -3.07876174577612
C        -2.99023179148523   -2.09164198800415   -2.11622756448574
C         2.43550191620539   -5.13439509742983   -3.30772929004064
C        -0.07567439571476    4.06076335481265   -0.76626697906568
C         0.94873958547537    5.12488278965867   -0.38648634038968
C        -1.49367654285608    4.61290495971888   -0.65287347101694
C         4.03548216922735    4.37255801701538   -4.18283740310804
B         3.41270082309263   -0.11095584010435   -0.80814413949806
H         5.28572275621443    0.24672382444755    1.34170109782031
H         0.44060700582731    1.36255616225023    3.12210812018153
H         2.07821481100115    2.48372499442988    4.48000589420335
H         1.13736542378724    1.49825988767848    5.60060405473905
H         3.48112259967711    1.23632158380206    6.16112932774789
H         2.92662764792571   -0.27931993862978    5.45639775320766
H         4.64204610544031    1.86602366172734    4.16053484128030
H         3.93848706216438   -2.78505219138367   -1.72411522260904
H        -1.16569242309387   -2.41401829770299   -0.42807882910472
H        -0.46157379391364   -4.70620030091061   -0.28909859997383
H        -1.81745199681107   -4.70336014239703   -1.41779168172142
H        -0.07148382126046   -6.09932332190998   -2.35429703266924
H        -0.15873135928012   -4.63173900381370   -3.32394076674462
H         1.92277386041514   -5.37123421500990   -1.23900599613349
H         4.39946870153891    1.56020631356332   -2.91576467530928
H        -0.67692874101374    2.74944457978169   -2.31968873007256
H        -0.12652370039934    3.88464058490412   -4.23564160767391
H        -0.44096414749266    5.24113296573459   -3.16295285065744
H         1.56078846958595    5.65652190475636   -4.47981500988248
H         2.02763178569017    5.48401611475440   -2.78960494708957
H         2.30189783447911    3.39110522288617   -4.97941643178514
H         1.03579059526296   -0.97978777135017    4.89927548351413
H        -0.05642276945575   -2.53396401812193    3.32218311729312
H        -0.02616373699980   -1.29996972715500    2.06342466712798
H         1.48916201998234   -1.97170305800862    2.68627676043097
H        -0.95721161170826    0.53062496918215    5.19834556421935
H        -1.50806889843464    0.06518088268818    3.58571272221898
H        -1.41326449786777   -1.14021415306017    4.87138640318539
H         5.04729848752042   -1.14043191272988    4.50535949495418
H         6.20591739514329   -0.00261244591725    3.81488388164161
H         5.77506059560773    0.10652274012151    5.52327567468025
H        -1.49915469287144   -3.01918510213174   -3.34779772373296
H         0.02412831757115   -1.08211177217390   -3.46071039161005
H        -1.62011953537412   -0.61264369599650   -3.89125671366592
H        -0.98383194129866   -0.20816202597812   -2.29681445860798
H        -3.05747357115008   -1.30818919013052   -1.36463532315951
H        -3.59850001908364   -1.80235847720986   -2.97064412175558
H        -3.40295351143460   -3.00744101638592   -1.69948133029521
H         2.26028968314892   -6.17305518632436   -3.57961266890047
H         2.17419850655016   -4.50546399103214   -4.15621908315237
H         3.49438918440875   -5.00639744883178   -3.09795851426944
H         0.01208279640083    3.23955505195540   -0.04402585688837
H         1.96174882442534    4.74537269819810   -0.50449782970526
H         0.82710998869690    6.01880900923080   -0.99384586951561
H         0.81336859247485    5.40859609533484    0.65548024946684
H        -1.65997455037294    5.00186767610875    0.34893430911188
H        -1.66583150253395    5.41999074614605   -1.36177912391174
H        -2.22092601575276    3.82565357059667   -0.83414543046773
H         4.71094721009775    3.58650953974475   -4.51062604863827
H         4.05378360334558    5.17184133880636   -4.92054033266645
H         4.39870671061604    4.76732192459926   -3.23628436964166
H         4.54078455781363   -0.30841387245867   -1.10601821750594

