73
CSD_code = PAVQOV | q = 0 | S = 0 | Stoichiometry = C30H34N4NiO4 | MND = 4
Ni        2.58368671853672    7.33196107159096    5.63082369404422
O         1.43342682654188    6.43126820593913    4.47747683178334
O         1.04706780855958    4.03574894718542    5.53009992265880
H         0.93229356667030    4.99974924084597    5.37374006931907
N         3.88591084195586    7.06013413953959    4.29372203855278
N         4.51893650608567    3.91208317647749    4.50667068584828
C         5.15333865173414    7.47298973017148    4.31326801828221
H         5.45780940424591    8.02789980122116    5.18954522628360
C         6.04150473402864    7.21057687762198    3.29002902427100
H         7.05549233505108    7.57176266385786    3.35093409047061
C         5.60150028890347    6.47924136060041    2.19603246183828
H         6.26638721845293    6.25956656066062    1.37397227333773
C         4.29657113563454    6.03141942518786    2.18440008731219
H         3.92197347277332    5.44975820329723    1.35779367477237
C         3.45876433225892    6.32848308218455    3.25406357299695
C         1.27904001126532    6.45564862660833    2.08230207104347
H         0.20844497812254    6.33781421104134    2.22946476631264
H         1.57857331334495    5.92097147851629    1.18541797517079
H         1.50233141637713    7.51301909661871    1.95952193912223
C         2.00895611121818    5.90330085387561    3.33116568956965
C         1.90667883397123    4.34724027786454    3.29971521036428
H         0.90174942088835    4.07808608300577    2.96808785364255
H         2.63629393492745    3.94407351871060    2.60008186839192
C         2.11785152592148    3.69825634789928    4.68344616610343
C         2.15338402974658    2.17192848806353    4.54773056361684
H         2.20119682005132    1.72882009022738    5.53903657591663
H         3.02494672112479    1.87263134203019    3.97428682875920
H         1.24754173845134    1.82682218291177    4.05660176230909
C         5.70394263550654    4.28627318090701    4.95469506604771
H         6.53772874666756    4.05415150795426    4.30278524190862
C         5.89767138070720    4.92398213438168    6.16904064524396
H         6.88883853043698    5.20209546578344    6.49244207050546
C         4.78590774063055    5.17869179761493    6.95635988399223
H         4.89592305404691    5.65174949905328    7.92011471874377
C         3.53172504482859    4.80833352026301    6.48911663401723
H         2.64261628634551    4.91680542141848    7.09954326514201
C         3.44898544934787    4.16360881675668    5.25275578264001
O         3.73428311389563    8.23160261560579    6.78464551307543
O         4.12298188831662   10.62687524489973    5.73237302209030
H         4.23703163024888    9.66281209260821    5.88884559509992
N         1.28135901125673    7.60404285188063    6.96773824985744
N         0.65090100491838   10.75320892932124    6.75457312025221
C         0.01386146050355    7.19143201173646    6.94803323151218
H        -0.29065395364322    6.63674435749704    6.07161118418403
C        -0.87450617149983    7.45446794622947    7.97093049088956
H        -1.88877079612490    7.09415160991056    7.90954150562503
C        -0.43460404369430    8.18611981439286    9.06475232802514
H        -1.09975468291783    8.40659936032064    9.88636445121724
C         0.87040419687409    8.63370154152307    9.07651497629121
H         1.24507413413482    9.21516274208459    9.90324086820344
C         1.70844342576655    8.33594784422390    8.00723588704026
C         3.88774766312517    8.20704760478124    9.17999445024651
H         4.95850359518741    8.32406387400284    9.03328102457918
H         3.58820075329802    8.74189022968326   10.07678234408595
H         3.66359881904085    7.14984982956882    9.30259163183758
C         3.15868032127300    8.75982057084771    7.93081396980939
C         3.26227215468717   10.31576217121055    7.96235048470817
H         4.26727603016494   10.58409622880641    8.29441952429284
H         2.53272452510529   10.71945743166927    8.66173180919507
C         3.05218366431693   10.96522178998603    6.57867023756492
C         3.01762372448069   12.49157115395246    6.71441033937011
H         2.97049396614689   12.93479794788767    5.72311285771155
H         2.14618815272541   12.79159679393117    7.28769962007713
H         3.92364127980655   12.83581368350357    7.20577139062321
C        -0.53421241887711   10.37973307544313    6.30621704429366
H        -1.36803331544598   10.61230132280911    6.95793061870066
C        -0.72797130293836    9.74189414939023    5.09194189887425
H        -1.71922422239745    9.46440433956552    4.76825631779360
C         0.38384834505512    9.48655179299362    4.30490307456476
H         0.27381456307160    9.01338204020788    3.34119434624017
C         1.63812637863224    9.85623645064042    4.77245905644160
H         2.52735998103694    9.74703492678795    4.16235853648881
C         1.72091555911259   10.50095720221000    6.00882474879468

