35
CSD_code = PAWBEV | q = 1 | S = 0 | Stoichiometry = C10H14AgN6O4(1+) | MND = 2
Ag        8.41312888141408    3.02029543894946   13.45513158239337
C         8.42941937728825    3.35224704810704   17.86109263866014
C         7.47097890623266    2.35920273674145   17.63571865677756
C         7.40240096405116    2.17416990113725   16.23924000014889
C         8.91158131463258    3.94519186504916   19.11718988086311
H         9.67788967915808    4.69302346798726   18.93433067728737
H         9.30551149973634    3.16589767774219   19.76921947934373
H         8.08017256435383    4.39549597376681   19.65923080637413
C         6.55182262381710    1.24122294022876   15.47392355893263
H         6.74699018919831    1.34145194589063   14.39663949324487
H         5.50004022330882    1.43644018563772   15.67768874835302
H         6.74190097636502    0.21579537578229   15.78735901734264
C         8.26847453469583    3.34089913139000    9.05225457328518
C         9.26040687217064    2.37507977188236    9.24903790055491
C         9.38263607037224    2.20046535407087   10.64327477136752
C         7.72690654764928    3.91393262085659    7.81117579719940
H         6.91633560270971    4.60762008717012    8.01556019378603
H         7.37613567529805    3.11736186533503    7.15563213185435
H         8.51707618875649    4.42625545127260    7.26224156767765
C        10.28426989296507    1.29611393300443   11.38388780145899
H        10.12280296691740    1.39770756950602   12.46646722492720
H        11.32270097475575    1.51968530495095   11.14389046701773
H        10.11299639291572    0.26387975397810   11.08218452897859
N         8.26190800837916    3.00218017756978   15.65634863415787
N         8.86805357070002    3.70057653932915   16.64597890359050
H         9.57203482217764    4.39415238624945   16.43659442114797
N         8.52203931283791    3.00874132893762   11.25156018427594
N         7.86321014887071    3.68478457509082   10.28015546095331
H         7.14972438917780    4.36173648615546   10.51060206361502
N         6.71136652395041    1.67146438482302   18.62359766075159
N         9.99958179519650    1.69794172100921    8.23853271479254
O         6.91221929742436    1.97276214347850   19.77698847910927
O         5.92575892278890    0.84055082060779   18.22786884010110
O        10.81738880606228    0.88747219421414    8.61062170745608
O         9.75173548370254    1.98790184213024    7.09137943221943

