62
CSD_code = PAWJEC | q = 0 | S = 0 | Stoichiometry = C14H37B9NRh | MND = 10
Rh        8.32759156322924    9.19252484576928   10.69596989145935
H         8.28092768191868    8.98843463118305   12.27895128313784
H         9.67936517452892   10.04935134218878   10.83731225428465
C         7.47836943775590   10.30062255421683    8.95541380593793
C         6.53157394056513   10.42652605642493   10.01166795576490
C         6.13505734939236    9.10401514838267   10.37515155078086
C         6.73436765961516    8.17576956193916    9.45543286208099
C         7.57430147062243    8.91305878332145    8.58514224320075
C         8.06564294350071   11.43077628331211    8.16529218392566
H         7.44146728506192   11.63019760617224    7.29178377548390
H         9.06615742026861   11.18607805722566    7.81434239826379
H         8.11962126933202   12.34299544874651    8.75605587897681
C         5.95327601719844   11.70944986077225   10.53107028185385
H         5.54397737819794   11.58291364831808   11.53136407944484
H         5.14285908264504   12.04195410999296    9.87814433960076
H         6.69998891142641   12.50156082316876   10.56346543339101
C         5.05430445797581    8.74379758848194   11.34974192676120
H         4.10860434101393    8.61575412972812   10.81949625738914
H         4.91913643421102    9.51967308423984   12.10027926329743
H         5.28377951448805    7.80981679846161   11.85881398368792
C         6.38220632451828    6.72628072336083    9.34367582436436
H         5.49069800611073    6.60869693670544    8.72331016020955
H         6.17467181205657    6.29755353874994   10.32109516766129
H         7.19134092679775    6.16128035672656    8.88798273164014
C         8.27784706752585    8.39429907315757    7.37087015587608
H         9.19930815480456    8.94204326983532    7.18762180051224
H         7.63596708134385    8.50590438640136    6.49392392100685
H         8.52377529781769    7.34144356126256    7.48285745691596
B        11.47669999798069    8.01998668976131   11.51645428256799
H        12.34135182531248    7.42406799899962   10.97962460739487
B         9.78412128293193    7.61820738844180   11.07880433211785
H         9.58002659586752    6.72201175827414   10.33335873128828
B        10.40001852588093    7.27909644382430   12.73538780018682
H        10.49843066189611    6.15053612290622   13.06692808036082
B        11.65838725353668    8.37216293506382   13.27753438623520
H        12.59313032569676    7.89219864461851   13.81862001243744
B        10.62090309681703    9.15131866533993   10.55541101199383
H        11.00406054600190    9.34162588922876    9.44981620592240
B         8.77818213089333    7.84341263671457   12.59719918764206
H         7.88527486927155    7.09438150853889   12.82746526095467
B         9.85361402566009    8.35588253273975   14.01868493658674
H         9.69243679344684    7.75792523363724   15.02993360161048
B        11.26078795317371   10.04098401381395   13.70535956235349
H        12.03148119013390   10.69198153054751   14.32396800116507
H        11.06946115715950   10.60796554527013   12.50748740505044
N         9.85759701098917    9.94364198183525   14.38834142061643
C         8.81836504324923   10.87729391604317   13.93213224111399
H         8.76535302140573   10.84587821448917   12.83824418529039
H         9.11223816479134   11.89733298416808   14.20092767564770
C         7.42835120638064   10.57444489721026   14.48739755461957
H         6.68674866765394   11.15108535037804   13.93933534562834
H         7.34351218860577   10.83421205292760   15.53946498652132
H         7.20187900194054    9.51726071781481   14.37034608358394
C        10.00141289324088   10.04879460008247   15.85857043048586
H         9.11920384855188    9.60983642055729   16.33196541095628
H        10.86079222706659    9.43847912234516   16.13599365552617
C        10.21451210523618   11.45661842099120   16.41214714698089
H        10.51862138697743   11.37544524079590   17.45289570487185
H         9.30895099060883   12.05778178026304   16.38038501199792
H        11.00200449559860   11.97480981881331   15.87172727041377
B        11.79996807600632    9.64716299166614   11.99406285740893
H        12.84173743611406   10.13930374365373   11.73729674556046

