57
CSD_code = PAWJOP | q = 0 | S = 0 | Stoichiometry = C14H32N6NiO2S2 | MND = 4
Ni        2.10570900615072    9.49718710449440    8.33910406743265
S         0.98971852253540    7.78584978645377    9.27379332391599
S         3.22091788527866   10.76891983750942    7.13603903340622
O         2.67156767884264   11.02917391514132    5.80497784949721
O         3.65673830089988   11.97020728847633    7.85389254563258
N         0.42304250540508   10.05968971299863    7.54562796654558
N        -0.60146913697922   11.35351336209698    5.89035223486718
N         0.44202748414155   12.36706744096945    7.70920901899001
N         3.86106407556999    8.70797973902510    8.73407887999850
N         5.09199851700473    7.12774717416227    9.95250589135744
N         3.92288252531848    8.84893535698681   11.03639541518683
C         0.14586137147197   11.22780880640348    7.03232466180927
C        -1.54540696491076   12.42820559030786    5.70872515152836
H        -1.76858236456241   12.88478003008956    6.66957284874404
H        -2.46882103527972   12.01274429846061    5.29360690451628
H        -1.18290601030575   13.19964364969806    5.02082883662299
C        -0.23405624228167   10.63346971450734    4.69149857773932
H         0.73224342866169   10.15888719339437    4.84468104089669
H        -0.12828167057054   11.34128233022708    3.86511067232104
H        -0.98623975442958    9.88784737843796    4.41578398468366
C         0.97718211791648   13.51840539418524    7.01241094131720
H         0.93283998984601   13.36421897005075    5.93916441676507
H         2.02966694712995   13.63743121307741    7.28243532411704
H         0.42491022333903   14.42103948264054    7.28652744238183
C         0.82073044825124   12.30689127616355    9.10485291214251
H         1.90898646076474   12.30483398368274    9.21615286652627
H         0.39692789148691   11.40734367872623    9.55726206188392
H         0.41525472513549   13.18856105515396    9.60672344616509
C        -0.33144623244934    8.87643671682663    7.14894388194091
H         0.24456898393033    8.26300997765705    6.44094007554420
H        -1.28358371187467    9.16427239211945    6.68368001852347
C        -0.59033650411845    8.06298880449698    8.41110979883722
H        -1.01959935267421    7.08765766481851    8.17796592319816
H        -1.25678255236351    8.60206704966718    9.08747102908960
C         4.25394638361061    8.20940122886153    9.86803426742631
C         6.03775175320267    6.96985143618078   11.02874544617672
H         6.14842523177845    7.91273539650420   11.55724215445282
H         7.00552866671155    6.68296831497875   10.60657011236384
H         5.73785001297528    6.19103888748992   11.73865639806164
C         4.81233980592874    5.93163353406648    9.19118562820232
H         3.91777312200298    6.08154699017803    8.59286410668584
H         4.62526024836170    5.09717382255919    9.87476399429146
H         5.65214566669260    5.66301139609585    8.54374005172295
C         3.31993952133519   10.15957193095813   10.89302435061306
H         2.30833989757294   10.08658135869474   10.41978403171417
H         3.95649967127654   10.79174153819322   10.27174106289923
H         3.21673236334513   10.60489496108867   11.88055611445236
C         3.30591359656289    8.06525733768148   12.09249434051437
H         3.70169983353720    7.05562542321463   12.10490240962769
H         2.22552514588198    8.00223910114687   11.92515726818159
H         3.50152938944974    8.53983999842263   13.05453188002203
C         4.54503463611993    8.45484415495115    7.47907777267623
H         3.90842287681366    7.84835443871042    6.81865899920980
H         5.48686951803457    7.92071702215733    7.65347893623806
C         4.80511613525928    9.79889656648832    6.82767532276630
H         4.97086476666695    9.74418594482691    5.75739551671620
H         5.59246420060477   10.35729184744491    7.32457079085849

