79
CSD_code = PAWJED | q = 0 | S = 0 | Stoichiometry = C30H46ClNPd | MND = 5
Pd        1.10958892056760   14.20658608972212   15.86132473420636
Cl        1.30951267973936   13.16426127906574   13.71101462739109
N         0.11127985088336   16.79253435881941   14.75489289109211
C        -0.19479909264620   15.63866329955906   15.29530503822445
C        -1.66647378138125   15.33690648967425   15.03312648559354
C        -2.17001876418406   16.56167654697458   14.22444699100470
H        -2.65142978710730   16.24387751583859   13.30165511708276
H        -2.90184647239798   17.13136929554581   14.79567292151345
C        -0.94326572788232   17.42298129744723   13.91605225378327
C        -1.83572457160989   14.07072462454845   14.15335755265082
H        -2.84246186559583   14.10111021848468   13.72620164185184
H        -1.11776682102416   14.11106395888584   13.33189299224582
C        -1.67867510389379   12.72506124442493   14.86590255726835
H        -0.64911133084682   12.63943549884664   15.26322986784923
C        -2.62933360468712   12.65084912292754   16.05010867310301
H        -3.66581647733179   12.72938072657050   15.71080315254283
H        -2.51676636857465   11.69403004516417   16.56515205187172
C        -2.29007202230043   13.79837697212712   16.98733035848013
H        -1.22807335610957   13.71906864237350   17.26497705295512
H        -2.89463016167930   13.73276293105067   17.89313837423785
C        -2.54779180020859   15.14317999320539   16.30541418393387
H        -3.57140062635143   15.10417849686388   15.91064039146694
C         1.34158047274237   17.53419248913842   14.85425328472979
C         1.46927757258593   18.51216668360212   15.85417435146795
C         2.49093153526324   19.44762556764789   15.76492100341025
H         2.58250269254521   20.20570894978430   16.52618404697625
C         3.38790676533050   19.42661829922485   14.71636253900853
H         4.14956255825972   20.18752928085268   14.63268317918564
C         3.34500080519369   18.37818149030793   13.82219823401916
H         4.10433394154515   18.30017216228941   13.06071262277170
C         2.34885116594574   17.40986075807651   13.88608309356744
C        -0.54479381873033   17.31712038002604   12.44315930763271
H        -0.37601483493477   16.28026775153457   12.16420927973756
H         0.36154512720004   17.88627748284773   12.25225141026745
H        -1.34066111728112   17.71956851920807   11.82067268850516
C        -1.17168141577539   18.89151175891486   14.26578249195809
H        -0.27420175323640   19.48080788235678   14.09370682534769
H        -1.47407675178474   19.00737677811419   15.30266163693083
H        -1.96525176592028   19.28343214811064   13.63335527908777
C        -1.89651968831504   11.58983548554778   13.87195378897160
H        -1.82713192374827   10.62682425008265   14.37343411173939
H        -1.13531474093576   11.62969402751423   13.09739451489610
H        -2.87788322957713   11.66595708131169   13.40602038093739
C        -2.50878016191577   16.30932089195943   17.31943605047805
H        -2.22034635877672   17.22272332449776   16.78964471985837
C        -1.51206012984093   16.09706803842958   18.45781312406358
H        -1.39698056995174   17.02030814186105   19.02179091945800
H        -0.54101395556969   15.79818812326339   18.06667920585880
H        -1.86205487196600   15.33189814225683   19.14512261520714
C        -3.90294199805443   16.54780036967228   17.90325153939492
H        -4.26862446057445   15.65238519067712   18.40067340341524
H        -4.61246008718074   16.81967674540036   17.12406539590551
H        -3.87469590812577   17.35386979904207   18.63360949548748
C         0.64075724258297   18.46824023004837   17.11240868413654
H        -0.23252691650888   17.84134309640252   16.93704860121094
C         0.17048930867012   19.83633092316621   17.60675601055619
H         0.99330551424346   20.41147621286841   18.02312699193392
H        -0.57255250292044   19.70700348929676   18.39121562260688
H        -0.27696336236332   20.41355330767911   16.80069799665199
C         1.51125976155897   17.77994199112679   18.17064993950463
H         1.79579242821415   16.78797550311139   17.81656354353467
H         0.97273823925660   17.68089600006074   19.10969114001253
H         2.41766756739068   18.35449770555346   18.34862504325897
C         2.52417908650555   16.15193972139157   13.07857118172125
H         1.60087143038476   15.56907584204378   13.08296828327973
C         2.95244286438328   16.36272870378836   11.62856705077154
H         2.28889849197541   17.05865534302254   11.11951282407174
H         2.91296472519923   15.40952528481454   11.10769431680521
H         3.96993278653046   16.74036374373854   11.55921255420516
C         3.57994600808035   15.33789022244079   13.84308138083704
H         4.52641865028897   15.87469505219558   13.89080148023475
H         3.73064080942311   14.38030812417908   13.35054149464341
H         3.22114127696684   15.15997090572250   14.87406460283079
C         1.70862636883678   14.02916946749659   17.74651462157727
H         1.76539770341053   14.37457126998983   18.76821967937472
C         1.59785034988141   12.65958302331909   17.24033631564899
H         1.16871531059145   11.68582760002500   17.37533303185631
C         2.72291631818113   13.34763735264022   16.91866504808483
H         3.76716372943121   13.24375324218420   16.69803210999720

