62
CSD_code = PAWJIG | q = 0 | S = 0 | Stoichiometry = C14H37B9NRh | MND = 10
C         4.33967282343862   13.60659661146139   14.83838570044857
C         5.60530560791171   14.20700707395691   15.09672000861646
C         6.37253588549006   14.17053714610990   13.88217648398715
C         5.59125956757345   13.54117545691022   12.88345668587874
C         4.36040887720304   13.14463323850602   13.48526718699020
C         3.11334599716777   13.67468112372506   15.70054518641728
H         2.53693454828571   12.75097447387279   15.66082960365790
H         2.46457790800706   14.48267488441554   15.35372325209410
H         3.36904969007061   13.87640196588095   16.73750808347459
C         5.97973803027397   15.03684004644217   16.28681781027661
H         5.89937462580380   16.09572856995399   16.03323859107906
H         7.00437108811404   14.83860293121084   16.59339361466834
H         5.32584512336310   14.84124451908071   17.13279244656722
C         7.66932334347315   14.88477511877314   13.67191301039754
H         7.48074605820997   15.93423622686318   13.43460578291621
H         8.22982490944255   14.44458794764216   12.85125423384138
H         8.28342165833504   14.84445557279110   14.56779580895186
C         5.93300263941388   13.42261771853590   11.43148048548294
H         7.00800456058314   13.34089020173258   11.29027004298222
H         5.58422077548942   14.30597945873581   10.89128244763691
H         5.46264589599543   12.54828943965495   10.98729409026593
C         3.18516769534381   12.57851365773605   12.74580983524245
H         2.63860526126899   13.38333472504643   12.24958886697035
H         2.49744717514664   12.07322019584835   13.42112188331268
H         3.50329120758634   11.87069562228460   11.98257069845360
C         5.29512196821731   10.70081339710468   18.83125362467050
H         5.02471511174720    9.80958919584280   19.40470354634705
H         6.20315318089349   11.10513531667072   19.27875094796856
C         4.18089295952251   11.73452070762824   18.94819232739775
H         4.13551612399030   12.09361027694336   19.97360960348825
H         3.20707417056256   11.32254035796029   18.69562320947630
H         4.38330788295123   12.57888110615820   18.29706328010624
C         4.44061634632923    9.76365420974275   16.78084610504730
H         4.73929288387315    9.37326464351141   15.80816266763136
H         3.72381680397433   10.57345615486446   16.60673004944308
C         3.75768170869740    8.61406141759711   17.52460694725374
H         3.03787648217535    8.13873480307222   16.86100634373224
H         3.22072734627663    8.94894983091826   18.40795620886479
H         4.48912758900300    7.86645960012163   17.82431504220030
B         7.88752065504068   11.62643776860237   15.68475918586792
H         8.49190475080193   12.64018753942253   15.79692064133052
B         7.81411610365100   10.91881926847602   14.03653454836022
H         8.40226309133622   11.43732405588107   13.15155529593556
B         8.75578860712704   10.13133365871280   15.30679384320467
H         9.91311017809945   10.03779458857887   15.10380293228490
B         8.17871418699675   10.43248138573785   16.96679832522724
H         8.99634297473129   10.72587110079436   17.76703574096433
B         6.35298346536844   10.07979547087083   13.66349561818448
H         5.93185518759285    9.85517832933471   12.58068969514593
H         5.38962827201683   10.60225821468863   14.41702813465390
H         6.45136784256845    8.88686247951142   14.30911692166480
B         7.72152485058223    9.10846776665560   14.30375022946742
H         8.21478926959108    8.34531250435903   13.54968788659191
B         8.01560885735971    8.82615705319700   16.15743210507784
H         6.76885045615744    8.50309092336266   16.51488908383764
H         8.66851815122914    7.89874277155279   16.48396348703987
B         6.89377039608547    9.36028025712372   17.50728806406015
H         6.95797126782279    8.74279476568482   18.51799993139145
B         6.52658176498370   11.47839521027336   16.76882202049710
H         6.43687367447828   12.43159229372968   17.46455756620827
N         5.63496937787243   10.30272111566351   17.44843492825208
Rh        5.99230510730212   12.04493653247930   14.65128207051412

