42
CSD_code = PAWKOQ | q = 0 | S = 0 | Stoichiometry = C12H26ClCuN2 | MND = 3
Cu       -0.81934494109892    1.96602015691746    6.29211293153673
Cl       -0.81992372396689    4.14103282809014    6.29255162052497
N         0.52871186631713    0.80555353373125    7.39802549247557
H         0.29701068581896   -0.18102764427628    7.31131749592637
H         1.42295555609363    0.95948461165847    6.93675693584995
C         0.65477371545284    1.17020626008669    8.81747467018845
H        -0.34566985890997    1.09195131454201    9.25827878329764
C         1.14291801776231    2.61008606211195    8.93565187961725
H         0.46512892921145    3.27012661781338    8.39123623312278
H         2.13072411835723    2.69204977115165    8.47500358632487
C         1.23129566968004    3.02102220764882   10.40103702375940
H         1.58978530942265    4.04844776054056   10.47076302320370
H         0.23632975183133    2.98353925191087   10.84921505452930
C         2.16912124443626    2.08706497985541   11.16117016238031
H         2.20672765341679    2.37076635206936   12.21445567216144
H         3.17909041141174    2.17786195217231   10.75469182530590
C         1.70162698992874    0.64007402183757   11.03452991605270
H         0.71906783962807    0.53529555917501   11.50029501144592
H         2.39241598834357   -0.02468043773573   11.55742053426136
C         1.60641505880010    0.23305638074752    9.56610730984046
H         2.59893339793647    0.28664510895291    9.10994552661664
H         1.25467710190565   -0.80045343125091    9.48992597663679
N        -2.16707297448514    0.80545291973845    5.18582174645590
H        -1.93538315676153   -0.18112787164849    5.27255953575965
H        -3.06137752657966    0.95938221944090    5.64697294629620
C        -2.29295947803228    1.17011352251339    3.76636233753562
H        -1.29247696685863    1.09178032087838    3.32565781343692
C        -2.78099218854222    2.61002771400247    3.64813928992459
H        -2.10321668078890    3.27002142264412    4.19262666970139
H        -3.76882943132144    2.69206055680006    4.10870612723863
C        -2.86921997707528    3.02097575096830    2.18274912647492
H        -3.22760871270592    4.04843430654215    2.11299514858831
H        -1.87422721218490    2.98339273368884    1.73463612743836
C        -3.80708532108818    2.08710228911220    1.42256473621167
H        -3.84462082353474    2.37081623557573    0.36928015153659
H        -4.81706498171608    2.17797527469844    1.82899823103571
C        -3.33970624287602    0.64007596848333    1.54922611514246
H        -2.35713406489567    0.53522310033110    1.08350511151791
H        -4.03052117680164   -0.02462179020315    1.02629903223857
C        -3.24460133925666    0.23302761012283    3.01764747652739
H        -4.23714464332512    0.28666861717171    3.47374797026397
H        -2.89292788294953   -0.80050411861304    3.09383764161395

