106
CSD_code = PAWLOO | q = 0 | S = 0 | Stoichiometry = C36H66AgAs2Br | MND = 3
Ag       -1.93843576778173    2.15412949288876    5.89597770799443
Br       -1.93831464702518   -0.31422918727279    5.89583869832644
As       -0.89177036488703    3.68825505431282    7.89405149112492
C        -0.58053416374391    2.44041455042631    9.40509910540227
C        -1.89494217691316    1.74442499607215    9.74764344004102
C        -1.69693711504830    0.64570878153066   10.78737448064694
C        -0.68030752064663   -0.37708883746169   10.29326455627622
C         0.64710902691998    0.31354506695309   10.00270088359046
C         0.44621945583031    1.40215662634064    8.95423522839018
C        -2.32283585088707    4.87961760529740    8.60684291259153
C        -2.73714531476809    5.88797769758290    7.53909789068363
C        -3.93875917969653    6.70638333244425    8.00244812000532
C        -3.61830916137407    7.42142637563401    9.31236508127784
C        -3.19485218627068    6.41632747758945   10.37996379694955
C        -1.99135216232981    5.60565444678187    9.90178151785276
C         0.72263812135257    4.87360655184738    7.87174108430707
C         1.65495989037449    4.40692124673347    6.75353713201780
C         2.84088423186203    5.35499056487720    6.60249286440328
C         3.60473588485057    5.46234090567646    7.91918067211806
C         2.67408555059978    5.91828176278718    9.03913458908679
C         1.49650429549812    4.95486592249365    9.18035017087111
H        -0.20673149504823    2.97297661388382   10.28772036273423
H        -2.30666653327371    1.29533249054274    8.83033320083190
H        -2.62143117308102    2.47174207663016   10.12617700387958
H        -1.34320512694805    1.09075948057648   11.72231839675937
H        -2.65210204443889    0.15656081123647   10.98889171075972
H        -1.05068048252840   -0.84321070251357    9.37821977316088
H        -0.54180219520368   -1.15901119212082   11.04228627615402
H         1.04057302689195    0.75656109993604   10.92263531095224
H         1.37551256639648   -0.41440383453236    9.64062656395871
H         0.08941989388011    0.93497523397084    8.02564764347008
H         1.40520758836319    1.88638363069303    8.73726047352350
H        -3.18080955729884    4.21521125840819    8.78626223173434
H        -1.90247741962414    6.56599491335183    7.32990151810245
H        -2.98077395298483    5.35485058442924    6.60764607657121
H        -4.79435857074888    6.04291435629887    8.15184911086821
H        -4.21197677478284    7.43696417449779    7.23714159473173
H        -2.80731677761181    8.13541267444638    9.14624336383702
H        -4.49090278207676    7.98192687703357    9.65400596922657
H        -4.02684213265306    5.73975631442528   10.59154507872663
H        -2.94621513030147    6.94001307916573   11.30602151166686
H        -1.15387706102336    6.28998203693822    9.73484874344174
H        -1.70206871117106    4.88948203756337   10.67753059267078
H         0.35844286213949    5.87915742297465    7.61694867426113
H         2.02081804701831    3.40007919647259    6.98195347652889
H         1.10107342398548    4.34641303703313    5.80848454522153
H         2.47780260016019    6.34449888534372    6.31216815266102
H         3.50652693646984    4.99810277857072    5.81364336806607
H         4.02491795206956    4.48629712213774    8.17357009929926
H         4.43347122669958    6.16556611725528    7.81375463284206
H         2.29995651023892    6.92091440747028    8.81438730718660
H         3.22374022749947    5.97106940834249    9.98180029875612
H         1.88466564665107    3.96696199275861    9.44237172894379
H         0.84905140342868    5.28989440573609    9.99515247644605
As       -2.98523724166115    3.68824127245778    3.89788590118015
C        -3.29651711220556    2.44037981724579    2.38687814881244
C        -1.98211509479239    1.74441633752032    2.04425974413949
C        -2.18016235773239    0.64570941817997    1.00452779837283
C        -3.19675853693236   -0.37710174551472    1.49867719758295
C        -4.52416911272497    0.31351377718694    1.78931283996155
C        -4.32323895107166    1.40211028781891    2.83778475171872
H        -3.67037121512689    2.97295313671113    1.50428665353771
H        -3.96638106533580    0.93492119808540    3.76634689606124
H        -5.28222089890522    1.88632744227629    3.05481578807683
H        -4.91768114927650    0.75654074334543    0.86940373331891
H        -5.25254875573663   -0.41444761970324    2.15141124668053
H        -2.82633319293883   -0.84322843371859    2.41369831058813
H        -3.33529326557492   -1.15901642615673    0.74965253315261
H        -2.53394528317649    1.09076622876896    0.06960506432225
H        -1.22500198038184    0.15657041819407    0.80296558864932
H        -1.57033791373061    1.29532247601963    2.96154196928320
H        -1.25565813042252    2.47174878557827    1.66569474785291
C        -1.55416000608012    4.87957748315618    3.18510430598361
C        -1.13981063949205    5.88792359669969    4.25284400598234
C         0.06180102795731    6.70630899215725    3.78945680510963
C        -0.25869001814650    7.42136723741699    2.47955772956903
C        -0.68220662168184    6.41628554403321    1.41196542562493
C        -1.88570063791671    5.60562530218443    1.89018738433427
H        -0.69619930897829    4.21516570973928    3.00564571877699
H        -2.72316012275965    6.28996237959433    2.05716087444621
H        -2.17502691139209    4.88946802010942    1.11444043639395
H         0.14976354610010    5.73970327205706    1.20034041766315
H        -0.93087253285867    6.93998887168705    0.48592526035669
H        -1.06966116809820    8.13536871984026    2.64571777423415
H         0.61390166048800    7.98185302618342    2.13788949192345
H         0.91737961223990    6.04282091097179    3.64001945868078
H         0.33506075046376    7.43687820639920    4.55475979737760
H        -1.97446617873272    6.56595097574353    4.46205975941317
H        -0.89616797624172    5.35478458826177    5.18428643374445
C        -4.59964197969512    4.87357620307875    3.92032430684528
C        -5.53191846761302    4.40685677987360    5.03855041571405
C        -6.71783621585358    5.35491973234958    5.18966138203059
C        -7.48173032373952    5.46230018559335    3.87300000998674
C        -6.55112005271401    5.91827026780988    2.75302498402565
C        -5.37354464633668    4.95485603942501    2.61173934817206
H        -4.23542975786868    5.87911925836362    4.17512237972861
H        -5.76171460581204    3.96695673892757    2.34971040328461
H        -4.72612203981458    5.28990458998577    1.79692027629395
H        -6.17698075047306    6.92089579100016    2.97778876313292
H        -7.10081317507292    5.97108740230937    1.81038285924758
H        -7.90192075713544    4.48626245545644    3.61860034708672
H        -8.31046161348583    6.16552275077298    3.97847550538718
H        -6.35473803331689    6.34441831727226    5.47999824293436
H        -7.38344857786539    4.99801010085355    5.97852714879492
H        -5.89778343016348    3.40002045199127    4.81011589731179
H        -4.97799162718211    4.34632376185227    5.98357904524039

