97
CSD_code = PAWROV | q = 0 | S = 0 | Stoichiometry = C42H45N3O4P2Ru | MND = 8
Ru        2.30012780390088    1.23072615748125    7.44195864091395
C         3.29582791602502   -0.67879539175102    7.99023722434407
C         1.87716586084846   -0.89264315582118    7.94934062752468
C         1.43599825962411   -0.67450064604594    6.61169708985649
C         2.57578581921689   -0.31196342080512    5.81370051534673
C         3.72704541345694   -0.34332201867027    6.67273865756117
C         4.16373118747966   -1.03573679497590    9.15935320396142
H         4.12960742756103   -2.11491408852068    9.32465637284174
H         3.80866915753207   -0.54073723232990   10.06345853231547
H         5.19911096315827   -0.75102150294385    8.98284618060704
C         1.09736873155082   -1.50329176335657    9.07448700660377
H         0.03037279543089   -1.51816144141885    8.85982098638454
H         1.26872910993483   -0.95642930126343   10.00220656930956
H         1.42771173232083   -2.53330627529437    9.22671265926568
C         0.07856605469584   -1.01002929591944    6.06908930547961
H         0.03575738453942   -2.07710324958039    5.83825246284098
H        -0.13050924802478   -0.45569821651687    5.15653176727094
H        -0.70718177918253   -0.78508534557148    6.78864567176012
C         2.59973121498509   -0.33977114375513    4.31144581600342
H         3.48401185574550    0.15793300198256    3.91910319122709
H         1.71663589493512    0.13939104360299    3.89150528269034
H         2.61678142843174   -1.37705113949292    3.96757191382484
C         5.15928906182496   -0.30346665719441    6.22780937217486
H         5.78709214921361    0.22903148790731    6.94145088727348
H         5.26611813829405    0.18341347385782    5.26167141693917
H         5.53431767383799   -1.32564977718105    6.13992303278376
P         0.59947113181424    2.68280375823787    7.03925503394244
C        -0.27081686237828    2.42697710568187    5.45113224357695
C        -1.61328339194112    2.07512701731746    5.36675075479191
H        -2.20452912510985    1.99056414416261    6.26750630071938
C        -2.19364349175046    1.83345390581620    4.13307975682837
H        -3.23751322555503    1.56035988302902    4.07664273369469
C        -1.44318976098780    1.93720147965562    2.97423625789465
H        -1.89970155067169    1.74749466761002    2.01392594051358
C        -0.10109999401647    2.27707321424483    3.05019706299173
H         0.48974688702707    2.35074433702283    2.14790288018654
C         0.47991322401970    2.51082585003109    4.28144518872940
H         1.53246100785480    2.74988687509314    4.35573518950771
C        -0.81495063560959    2.82782871566665    8.17410776704623
C        -1.60702964071407    3.96724637987595    8.24468617657198
H        -1.41284874275625    4.80458390278646    7.59102543461670
C        -2.64592848664360    4.02672603948280    9.15603706045372
H        -3.25542670510138    4.91712700882354    9.21744689173877
C        -2.90404567739793    2.95537400738074    9.99515555293994
H        -3.70708783706688    3.01366111358906   10.71508378824752
C        -2.12951917598280    1.80963474199026    9.91357139785202
H        -2.32772173451748    0.97344418003983   10.56826166955434
C        -1.09247405547435    1.74677146916392    9.00261019308017
H        -0.46380456841106    0.86687455566160    8.93949269651985
C         2.63179144198951    4.48649995376505    6.43620030660631
H         3.10564759010049    5.44362336192670    6.67380146489203
H         2.72764330100661    4.33656382740839    5.35584693654084
C         1.16654703922325    4.44858688836783    6.84938176367696
H         0.54103159197173    4.96254147938472    6.11252041670054
H         1.03245097508695    4.89931113628572    7.83600897586408
C         5.07255178768002    3.14746220514013    6.18140841052750
C         4.92344315992973    2.76956859597602    4.84925277795533
H         3.94626222729649    2.45616081816508    4.50325877505088
C         6.00419432703941    2.77819532174295    3.98966250359997
H         5.87939302938311    2.48794234293335    2.95595804029722
C         7.25363205690151    3.15399365742395    4.45871423497636
H         8.10231570920582    3.15834474059611    3.79089516188908
C         7.41219068670836    3.51856952182871    5.78475330621384
H         8.38638495745389    3.80776656783604    6.15137505008047
C         6.32829084334226    3.51699469293248    6.64659339987945
H         6.45693538379346    3.80527721427427    7.68005533466286
C         4.18854163574289    3.76184299747540    8.80480510078704
C         3.96682034413185    5.04039160048260    9.30041161814406
H         3.44727889002823    5.78022416424528    8.71028848453789
C         4.38706354564893    5.36709243965474   10.57867090626454
H         4.20076593428168    6.35820727270866   10.96617914628174
C         5.02189591612342    4.42704388393156   11.37193959007926
H         5.32304078069707    4.68499095305807   12.37597407603848
C         5.25320063672143    3.15136644875190   10.88202631094604
H         5.73408100693780    2.40936306210143   11.50162568710202
C         4.83674021669748    2.82327628900641    9.60714670708421
H         4.98249092312126    1.82178271568840    9.21808831896799
N         2.26461770906146    1.30818994196480   10.38026943593135
N         2.00539343644459    1.91442712073620    9.26345004005467
N         1.53820825605055    3.11883154208513    9.41294785854892
C         3.41418981435882    0.93637429981294   14.44151240773099
H         3.28066034508409    1.81385665530499   15.07797443379611
H         4.42909450735037    0.55449047175499   14.52024136348972
H         2.69324896796311    0.17320376404429   14.74344290378490
C         2.04188012527724    1.85228012020460   12.78842534429232
C         1.94413240382319    2.17194065733827   11.35790710538687
C         1.47140734822507    3.33836585424001   10.73891211135387
C         1.08301839993434    4.61905316545948   11.31371784632360
C        -0.01903143424685    6.63578030040759   10.88010887490108
H        -0.62040365158290    6.53072190632676   11.78565022917509
H        -0.60934858206732    7.07136544187067   10.07751211413913
H         0.84434877881468    7.26599146772928   11.10763105753351
O         1.17812491830657    2.04997483149431   13.60347604158569
O         3.22384126047387    1.28495906540230   13.07942968595510
O         1.34980281022005    5.00437191882014   12.42504845013961
O         0.40305502807649    5.36479997518001   10.41779950365224
P         3.57549402422102    3.09233568799120    7.22089802746959

