49
CSD_code = PAWWEP | q = 0 | S = 0 | Stoichiometry = C16H26N6Ti | MND = 6
C         4.01531160115587    9.77583612558276   -0.62790287828942
H         3.01836279994691   10.20066232683923   -0.49837334820601
H         3.98020158948295    8.71621416091343   -0.33478038430999
H         4.28102739566298    9.82354060213904   -1.69533461755642
C         6.47231281897595   14.42144785996321    3.32364618946056
H         5.91126688413978   14.00071126251860    4.15993732108689
H         6.20084293853136   15.48275482923725    3.22446061781484
H         7.54656159830323   14.36707563993745    3.55899482190104
C         5.68838531687907   10.91029757920535    4.01052604974785
H         6.59012976092430   11.51192818196872    3.87057874291399
H         5.97276810251609    9.84136119923524    3.98255547534889
H         5.28181316576470   11.11002365971328    5.01922780668090
C         3.53101537901837   10.43292200189988    3.13842714543629
H         2.80417406474540   10.72165786406812    2.37430895622001
H         3.07914463760643   10.57525492312578    4.13689749870689
H         3.75014076403500    9.35430350436286    3.03088620021465
C         3.04001101801491   13.28345698054651   -0.21170272512701
H         3.57065064402187   12.69553654518255   -0.96507978538894
H         3.17673415807566   14.35641958376286   -0.44463504336517
H         1.95792472554192   13.07071861110290   -0.29311472024116
C         2.86567844484193   13.73617167474373    2.11376775166687
H         3.23625793304805   13.44374812418845    3.10001351510962
H         1.77235703208048   13.57836303093955    2.07884448736423
H         3.04309654708227   14.81870984217255    1.97417495666148
C         6.21472519993343   10.13955257859205    0.25837576125874
C         6.85295067415169    9.06986888858578   -0.42895899390284
H         6.28544529568263    8.44079523761752   -1.09752934082972
C         8.19261638192757    8.85865103235956   -0.23287873972234
H         8.69634023924915    8.05226766297883   -0.74857722418888
C         8.91162527605843    9.68849554423146    0.63247272320402
H         9.96688052524792    9.54068941591526    0.79568696791439
C         8.22825389139851   10.70148726137066    1.27613434269553
H         8.74379250666739   11.36883284200547    1.96179468432553
C         6.64932918525092   14.05659399515790    0.95922769618914
C         7.55519621892119   15.12038504287524    0.69121414152449
H         7.90768138993187   15.74717388291569    1.49604013667420
C         7.97455883134959   15.32828634699382   -0.59663689071077
H         8.66569593268832   16.12976813991876   -0.82004951852173
C         7.51194722436539   14.50111912619216   -1.62444034545469
H         7.83451288284128   14.64631697423251   -2.64270674839111
C         6.62517395165270   13.49431388381941   -1.29674640130079
H         6.23437656909581   12.82944585306915   -2.06261561437678
N         4.94389847996934   10.51822321090437    0.19006125381596
N         6.93289383156050   10.92541527313195    1.11489549057445
N         6.14602575849133   13.68068614369973    2.12895777167085
N         6.19396241060286   13.27383859739043   -0.06403576102731
N         4.72465520902131   11.22692930061976    2.98914065337913
N         3.53637514783579   12.96100808760141    1.10051720892833
Ti        5.14011766570700   12.09783956447382    1.41273271242349

