68
CSD_code = PAWWOZ | q = 0 | S = 0 | Stoichiometry = C20H37ClN6OSi2Ti | MND = 7
C        -0.28062766710551    5.16304209744585   15.01011598713202
H        -0.35612174421130    5.86727475983269   14.18737241772090
H         0.70694081654425    5.26459729276270   15.44651303540309
H        -1.00219676865682    5.46618186899453   15.76111966950091
C        -2.11849855224545    2.65712631910319   15.37431743153712
H        -3.04926997093204    3.09884990384584   15.03142125383162
H        -2.03365486643833    2.85436663259608   16.43871480115730
H        -2.19947543148946    1.58174010859344   15.24831175607605
C         3.24971341848912    1.30696820315966   14.83281840444945
H         3.81987152393799    0.46769341433651   14.44663600084831
H         3.38864349870986    1.33190021505121   15.90834129818994
H         3.68575615045238    2.21608874209602   14.42922247804862
C         0.61853113562179   -0.28674994591225   15.42602699818096
H         1.37229808895559   -0.99413343152123   15.75811718587000
H        -0.11931315295019   -0.84329576769240   14.85373892226397
H         0.12791394611519    0.10384094338337   16.31182746286291
C         1.41865683992499   -0.04874961879554   11.96336036178514
C         2.04298668418622   -1.25586741951781   12.34840067818860
H         2.32620987862991   -1.39293125092089   13.37953048677609
C         2.26660815299556   -2.23451976440868   11.40776907089950
C         1.86531932931774   -1.99677169771163   10.08310097795787
H         2.02581440171672   -2.74533828754880    9.32370200955673
C         1.27268240061344   -0.79418686604162    9.76855317340677
H         0.96294547494032   -0.56067900715352    8.75599669807601
C        -1.44801650445489    3.93171379009455   11.91916899814287
C        -2.44867549270859    4.87442055472502   12.25016738712167
H        -2.66366014463199    5.06222790291835   13.29012049306084
C        -3.13130325698782    5.52032375588576   11.24689705663661
C        -2.80972845346246    5.21624198912319    9.91273876936101
H        -3.32909628256198    5.70507590755220    9.10399158446694
C        -1.82587274519258    4.28931456614714    9.65422293209236
H        -1.54134677423001    4.03019582428813    8.64023952845522
C         2.06593538837444    4.42280012458133   12.16755999602778
H         1.19661165153011    5.07937214808018   12.20171360682763
H         2.96098785919978    5.03171689915447   11.96568336540486
H         2.17265543865194    3.94340386710217   13.14114275739626
C         3.11410004142879    2.65804982045206   10.91686508341916
H         2.98399414911740    1.98553222733529   10.06527243766368
H         3.35420824664431    2.07194634732734   11.80667130542945
H         3.95533590778759    3.33624677102694   10.70434462318623
C        -2.07082953549984    0.38121506599622   12.30058381405818
H        -1.45294625166489    0.60111065690012   13.17265300869879
H        -2.16414186818036   -0.71484107974666   12.19198862196219
H        -3.08449107494100    0.78630160104715   12.46991916095492
C        -2.24323486730105    0.66885477215806    9.94818934115460
H        -1.74793324023713    1.07706354205579    9.06531505879053
H        -3.25513363745765    1.10572524151338   10.01845944399308
H        -2.35831434476162   -0.42068228986967    9.81487409952799
C        -4.20329673832105    6.52221401357577   11.54548662055406
H        -3.99598573507941    7.46082005802912   11.03442701234107
H        -4.27562529055978    6.70945839730718   12.61347829502513
H        -5.16536851725898    6.15688656858923   11.18853979485881
C         2.92071692304826   -3.53249789109481   11.76758522875613
H         3.81920258310941   -3.67883419013016   11.17051341817881
H         2.24710311563622   -4.36235871554715   11.55999693474973
H         3.19007611592121   -3.55521139470877   12.81973894071879
N         1.09814205703422    1.00106188596157   12.71833855327892
N         1.06368641835995    0.15451937921719   10.67529807511606
N        -0.69246095361228    3.20458005186542   12.73401133354787
N        -1.15413152293194    3.67203921686450   10.62316373820986
N        -1.47272324774764    0.96195328100981   11.12920998534961
N         1.87471539595593    3.40170733609526   11.14206375998054
H         1.64894975516392    3.87159237004221   10.25660533132525
O         0.72920609736631    2.54272636707814   14.90141776865005
Si        1.39278962298081    1.13702202792224   14.40240421984585
Si       -0.60574821520237    3.36474024482068   14.43762068252653
Cl        0.52883992784173    2.23378941438563    8.85594924067352
Ti        0.05697441271735    1.98771412889787   11.17864003275755

