33
CSD_code = PAWWIU | q = 0 | S = 0 | Stoichiometry = C12H16Cl2N2Pt | MND = 4
Pt        0.23523910424334    3.20596439992177    2.25490927276518
Cl        1.35754051822336    1.48096967350209    3.09839793537314
Cl        4.56170690665630    2.02707492044129   -1.38511574991460
N        -1.14079444025070    3.15048567398049    4.04672966418894
N        -0.67330482364510    4.77392545999316    1.40297776459353
C         1.42111887824396    3.38840018940597    0.65699451672291
C         2.51617482769231    2.63669414910850    0.25663859323222
H         2.84683777409709    1.78601179557226    0.83316314030482
C         3.20269422375819    2.97599138965900   -0.90157781902325
C         2.83147750284735    4.06034558408530   -1.68853328417759
H         3.39038425380668    4.29580205315104   -2.58049014630304
C         1.74537280539138    4.81917678182379   -1.30945984977023
H         1.43778550479700    5.66557900360735   -1.90681850647481
C         1.04186924549377    4.48932802751614   -0.15013508290301
C        -0.10608536282198    5.19925377490306    0.32376619021042
H        -0.49573020044346    6.06382196237856   -0.21220353395554
C        -1.85497164185886    5.44133915065073    1.88611806958574
H        -2.73768376586557    4.91645599442016    1.49633524786613
H        -1.88551699891961    6.47153479086309    1.50525039032056
C        -1.91932644515318    5.45965384417000    3.41354911189463
H        -0.96653550823115    5.82031385488519    3.80459209867445
H        -2.69384159973123    6.16802714567043    3.71364918097018
C        -2.26456238106939    4.09266057343233    4.00330030609869
H        -3.06008417647314    3.65083118217248    3.39602031412802
H        -2.66184824837806    4.22880848271466    5.02168292930698
C        -0.27494852763672    3.46384778251363    5.18652336135627
H         0.16162333305641    4.45633145588239    5.07454926855657
H         0.53419103143935    2.73618912018180    5.23586507127940
H        -0.84062562869478    3.43155527893470    6.12769611446828
C        -1.67561382978589    1.79780594237576    4.22307740258166
H        -2.27658299258638    1.52033606987687    3.35633646184025
H        -2.29846864946058    1.73620066474926    5.12506647454170
H        -0.85179068874048    1.09158382745668    4.31114509166179

