36
CSD_code = PAWWUG | q = 0 | S = 0 | Stoichiometry = C13H19ClN2Pt | MND = 4
Pt        0.53618895929533    4.43089190850419   20.48524980287373
Cl       -0.73974915399955    3.08762782323675   19.25232766681573
N         1.67762363245245    5.55412783569778   21.68403322658262
N         0.79606627165616    5.79364729466939   18.67490885062454
C         0.45036473399578    3.28306765692773   22.11870906385154
C        -0.21081035775632    2.08775652629088   22.35847758826960
H        -0.82019434822888    1.63510344888947   21.59027738357837
C        -0.10331031879231    1.45215885664579   23.58777850731111
H        -0.63053988409966    0.52146294178637   23.74670649674066
C         0.66475652423810    1.97915784751785   24.62185303839652
C         1.33280564758111    3.17245697934980   24.40442031388740
H         1.93647549151360    3.60769717170268   25.18978094073504
C         1.22855942126197    3.81784117756793   23.17286713649616
C         0.77686424590392    1.27707565707053   25.94280600014925
H         0.14034190558227    0.39656017674170   25.96997824571772
H         0.48613402543395    1.94242695312723   26.75466505628883
H         1.80591784393356    0.96528299811057   26.11990224306854
C         1.87129655660765    5.05773374986949   22.86009379874313
H         2.49525278965016    5.57197305192213   23.59073930092472
C         2.27452636204341    6.82183406474002   21.34931772615189
H         3.14049434313695    7.01042581313007   21.99939787345716
H         1.53896072308661    7.61590096550654   21.53731949156555
C         2.71322126985077    6.88492880978675   19.88581835654779
H         3.36731033188607    7.75049889613061   19.76306765806769
H         3.29364148990497    5.99132304958042   19.65047508902778
C         1.53539089384514    7.03475783148559   18.92340818338113
H         1.90160008125178    7.43784591100663   17.96518679164159
H         0.84248350467445    7.76887977886209   19.34547063942109
C         1.52491352513328    4.96390162614845   17.71341776185466
H         2.49240457940075    4.66772158960362   18.11895822652848
H         1.68868978003267    5.50652427143887   16.77181009747812
H         0.94926829697109    4.06262656408029   17.50618819019519
C        -0.50978854781388    6.13281389583062   18.10661619337970
H        -1.09279047245466    6.70296120004630   18.83059107617581
H        -1.05081143520383    5.21717274955606   17.87385974572070
H        -0.39865871197558    6.72683292743876   17.18952223835070

