29
CSD_code = PAWYIW | q = 0 | S = 0 | Stoichiometry = C7H15Cl2O4V | MND = 6
V         0.14053135835505    1.89403613005005   11.20292264593234
Cl        1.78092920594612    2.17702623393843   12.37723260540845
Cl        0.51435351999036   -0.09112295751133   10.63842453182506
O        -0.50238233604457    2.48744899624237    9.84461014927144
O        -0.00092592089852    4.59216631500847   11.44568339749253
O         2.01754634443022    2.43058127560975    9.33308984393803
O        -0.98215397677144    1.71140730728873   12.22096913201357
C        -1.26300520866078    4.78046355380536   12.06775620876881
H        -1.96346039547732    4.06247575209025   11.63752267070972
H        -1.60520888018581    5.81132019890194   11.88208346193823
C        -0.99045211937037    4.55321261490295   13.55582362163330
H        -1.01615722916627    3.47898534514248   13.75307668600485
H        -1.71553550269695    5.05641368652858   14.19080239375665
C         0.43804428977573    5.09835761962262   13.72335770062423
H         0.45146224933242    6.04672421445953   14.25878951596283
H         1.06829683854018    4.38795454502107   14.25445479524714
C         0.92260132797257    5.28280564888542   12.27221354624791
H         0.91723989420134    6.34792737025571   11.99335520876027
H         1.91425461308027    4.86703070249614   12.09020323983583
C         3.19657932848562    1.67167333656786    9.17453875233675
H         2.96350163776734    0.61737858670325    8.98316597717133
H         3.74643435661207    1.75830481868696   10.11064487240287
H         3.80257318242979    2.06768874783590    8.35059627665639
C         1.17470404323159    2.40591145735661    8.20572318114049
H         0.98558380841770    1.36554689138744    7.89503168538424
H         1.61744848054181    2.96485446254796    7.36743908787487
C        -0.14356296574548    3.05187770384983    8.66333273365135
H         0.01636669077192    4.12951735868788    8.83284073905410
H        -0.92950663489061    2.91453208361166    7.90311533893526

