61
CSD_code = PAWZUL | q = 0 | S = 0 | Stoichiometry = C26H29ClN2O2Ru | MND = 9
C         4.62713735331821    6.46126344787983    6.69774313804927
H         3.64091695408995    6.86624424875519    6.48381621600677
H         5.36582542554020    7.02386940686034    6.12153664785498
H         4.85250929804440    6.59153636296951    7.75503212327018
C         4.71206532291891    5.01822920964829    6.30832586913762
C         5.79460598957313    4.21938417380556    6.77054325861340
H         6.52259898086118    4.65050945938324    7.44807734430263
C         5.87775209963434    2.86654164620576    6.41793331100477
H         6.67700577665628    2.25753260937557    6.82832316928571
C         4.91508870042108    2.25747989576162    5.57237356833957
C         3.86205453079403    3.06855628837641    5.09684192716568
H         3.06716189705410    2.62772251640223    4.50524314437090
C         3.72484176135261    4.41615479222244    5.51250275575859
H         2.83847918530920    4.97289760730691    5.23450387363314
C         4.97691505017872    0.77956405483214    5.26573475501215
H         5.93626594193921    0.39643024477767    5.63191321923724
C         4.90790766118125    0.51326033229712    3.76064589991021
H         5.06027661287687   -0.54488674104416    3.56110927313710
H         5.68513474533749    1.07372210044244    3.24252485956468
H         3.94137558846129    0.80186032017450    3.35361146094959
C         3.85078708521999    0.04892547974137    6.00432382914216
H         3.91584051379461    0.22883277586688    7.07557438751959
H         3.92273222596868   -1.02167340243286    5.82884379687627
H         2.87792408100060    0.39019330111205    5.65698383665299
C        12.40648762859408    0.21467946893570   -0.77616095767250
H        13.38422445063615   -0.25475876873204   -0.87326383446639
H        12.39539768947276    1.14812542387427   -1.34773961952755
H        11.64051233413250   -0.46188308152648   -1.16887490293235
C        11.08828062711444    1.05031566359178    1.02162741934601
C        10.03920076419756    1.43999539301871    0.19182136795518
H        10.08755170797540    1.28073356593482   -0.87401749000028
C         8.91920520213075    2.04333621044190    0.73038538788162
H         8.10409769026819    2.35221696086818    0.09627516659575
C         8.82312284195630    2.26867781047565    2.09904330399575
C         9.87570606601960    1.87961451328827    2.92789361764328
H         9.80065599043788    2.06497320134568    3.98837008119677
C        10.99234746765531    1.27726604682730    2.39751104219521
H        11.81582156655749    0.97229809506882    3.02387677667472
C         7.63541338971965    2.91604669973547    2.67708653921396
C         4.60987258642593    3.86967648544433    0.29935163538683
H         4.76896611454152    2.79964785156973    0.17155863289278
H         5.43977359895934    4.37622615333910   -0.19235968591526
H         3.67459247251548    4.17267293767693   -0.16100588120675
C         4.62865601909864    4.21633423787296    1.75715414167954
C         3.52458881797949    5.00886363851869    2.30952537888922
C         2.20447254480011    4.58538145412713    2.16023659546955
H         1.99784229598118    3.63956513183537    1.67959474072002
C         1.16371293234448    5.35819102157182    2.64094894065921
H         0.14476924211740    5.01515295894601    2.53259118363755
C         1.42450019310155    6.57464355751369    3.25192520480673
H         0.60817950941410    7.18142181969999    3.61622649528587
C         2.73256066729463    7.01256515918111    3.38350717421284
H         2.93968498009660    7.96747641889219    3.84346191434936
C         3.78148549162620    6.23543914443827    2.92374303099601
H         4.80052597024485    6.58535045908180    3.01134107370807
N         6.65483534628636    3.24627846507323    1.86650857914725
N         5.63513666553724    3.87218034879061    2.49083291750621
O         7.57872709269863    3.10384865582815    3.93537507220168
O        12.23254252575904    0.44985161554027    0.60030345440122
Cl        6.98293560614975    6.03005557422641    4.06670812620355
Ru        5.82801112870418    4.03708957694943    4.49507571209428

