146
CSD_code = PAXBUL | q = 0 | S = 0 | Stoichiometry = C58H82MoNPS3 | MND = 5
Mo        1.16297559349019   -4.11110188723000    4.43945952281585
S         1.26297484899948   -5.81000669193081    6.10861457948789
S        -1.07799658166126   -3.74724197371881    3.90258710999552
S         2.52241873335972   -2.32578128043863    3.66474218295209
P         1.63132312200664   -2.71740057699330    6.74339650084656
N         1.45853483637138   -5.19055704165481    3.14175368772512
C         0.65096138508773   -3.20270133908841    8.21929013288037
C         1.70945476983772   -0.90796910047543    7.00727131890824
C         2.12421449313258   -0.39672447177246    8.23427545295074
C         2.18491830031784    0.96840364095702    8.43318750722429
C         1.84575741934357    1.83629036139765    7.40703356918074
C         1.45034955500340    1.33266060076053    6.18097920376342
C         1.37753632680761   -0.03543369018876    5.98138762971442
C         3.32823611250800   -3.12722180036515    7.27713881103675
C         4.38072992978802   -2.35436995271319    6.78892557857705
C         5.68141277051522   -2.64106798356512    7.15697537462580
C         5.94654447269365   -3.70354037015722    8.00668487767811
C         4.90476512688652   -4.47847126815573    8.48785627412147
C         3.59914669989923   -4.19703589921285    8.12487281296671
C         1.68450212704019   -7.25945758779322    5.16517556514546
C         3.02313843840642   -7.65686197593360    5.12036205127939
C         3.35593628041903   -8.76880154932252    4.36493472520004
C         2.39334819706909   -9.50650739153445    3.69414265934086
C         1.07020639069367   -9.10725225851350    3.78904935599455
C         0.68810505429570   -7.98665943361059    4.51062015356636
C         4.08481928412632   -6.85335669696129    5.83286914515206
C         4.56774686551388   -5.73263334442846    4.90976752576219
C         5.26910364234233   -7.68502731795790    6.32178170422826
C        -0.76237534933595   -7.58417102445734    4.61801216826497
C        -1.61418092931640   -8.01356283815815    3.42687684241360
C        -1.33450345134721   -8.14475194887135    5.92403616999931
C         2.77039862997598  -10.71473577176149    2.87178277451405
C         3.68457844633409  -10.31108477930352    1.71318076218644
C         3.43256209138661  -11.78660732446460    3.73990229791161
C        -1.64972186702839   -2.54901028233694    5.10134477162397
C        -1.64874811976226   -1.18605826568549    4.76508690656650
C        -2.04013225788569   -0.27042397237188    5.72807421532123
C        -2.47974596232795   -0.67159628152109    6.98076607546133
C        -2.59056236876042   -2.02868854820930    7.23931416249103
C        -2.19402251904091   -2.98722093636108    6.31650409913259
C        -1.31580937826999   -0.75394142967251    3.35505062460395
C        -1.02513952012722    0.73484758287539    3.18590337594827
C        -2.48893876120902   -1.13845487652000    2.44405599465282
C        -2.41517485873023   -4.46180558069047    6.56682768563097
C        -3.60066660103689   -4.91963137975054    5.70698947630251
C        -2.68536511593683   -4.83422279948771    8.02308846758001
C        -2.85967940929696    0.34001674821520    8.03342989586059
C        -1.64325834617051    1.18230020777808    8.42451263770232
C        -4.00769932337765    1.23167539782657    7.55702746187282
C         3.30721347413742   -2.81488477863257    2.14110032913884
C         4.70275915876070   -2.93039883297328    2.13274080584650
C         5.32722809834689   -3.30671038443369    0.95445517661502
C         4.61152018934377   -3.56348000665049   -0.20433217161371
C         3.23742785186717   -3.39979372391088   -0.17407484532316
C         2.56350204947428   -3.01639662396575    0.97600004599065
C         5.51035793587963   -2.59161349842249    3.36397008586610
C         6.86910454113769   -3.28511410507717    3.42856547364418
C         5.69036263974485   -1.07092463068047    3.43249581370031
C         1.07455116695617   -2.79014938049757    0.89890572785821
C         0.33215343695817   -4.04767618371345    0.45016354290959
C         0.76926242518486   -1.59977614347307   -0.01344887791583
C         5.32158915422524   -3.99283042405539   -1.46495473026880
C         5.11749357947594   -2.96926463965023   -2.58382578045886
C         4.84789513606889   -5.37963262049139   -1.90430789318509
H         1.18152663766998   -2.95808437047300    9.13909794426849
H        -0.29154384976251   -2.65517112061685    8.18251089828518
H         0.44669074176309   -4.27282133157062    8.18476298299395
H         2.41661626919240   -1.06710480843419    9.03046804629125
H         2.50471694427036    1.35869892824993    9.38841988691863
H         1.89921655525233    2.90348879888990    7.56329121333988
H         1.20695616063255    2.01161815106947    5.37638687866844
H         1.08477388221575   -0.43457899285513    5.02002216312873
H         4.16973665085228   -1.52350959075014    6.12776554343694
H         6.49145205308153   -2.03250098396371    6.78225686469449
H         6.96389090125511   -3.92632679252957    8.29329249827125
H         5.10763754619778   -5.30788275435138    9.14988830709040
H         2.79298258674461   -4.81339343197052    8.49709782509605
H         4.39042264388475   -9.06447765539659    4.29851511755765
H         0.31691208793483   -9.68496700676368    3.27668606709854
H         3.61887076216332   -6.39424377772796    6.71283156484241
H         5.30472277658666   -5.11286728788184    5.41747406057544
H         5.00971919065599   -6.15074080804777    4.00807281308907
H         3.71858901077995   -5.10301332934797    4.59903581069497
H         5.88686758235964   -7.08058206974524    6.98328898867120
H         4.92396704116568   -8.55867238973824    6.87009462255428
H         5.89191729794667   -8.01299092551672    5.49327949021820
H        -0.79820816336333   -6.48500686064243    4.65086994406869
H        -2.58681697876236   -7.52934152714790    3.48572931326400
H        -1.13645166704153   -7.70999726219795    2.49889862174712
H        -1.77431292552560   -9.08946138559400    3.41578613763820
H        -2.38063372857967   -7.86718304390416    6.03164449157100
H        -1.26217263420830   -9.23096245223742    5.92577067772461
H        -0.77943262378542   -7.76206464709865    6.77842581023615
H         1.85265566778570  -11.13847953789446    2.44884588732196
H         3.88699234091152  -11.16823898754002    1.07407669117035
H         3.21296606432895   -9.53365141173532    1.11667374785311
H         4.63176294684971   -9.92819944311802    2.08482467348984
H         3.64359676874733  -12.67451902807723    3.14743233562262
H         4.36815902760638  -11.42273494235972    4.15714214408602
H         2.77686902772407  -12.06577470861274    4.56189570117534
H        -2.01385250988755    0.78097528666534    5.49585355821231
H        -3.00405035227967   -2.34205719132354    8.18574508586711
H        -0.42628687332843   -1.30891686504736    3.02609164543698
H        -0.67056131643352    0.91480039886029    2.17293800645054
H        -1.92557135019341    1.32751642991668    3.33489753149449
H        -0.25941597702073    1.07413610532419    3.87725914548108
H        -2.28533083566660   -0.82939272714717    1.42139634065081
H        -2.65369046537529   -2.21258271760922    2.45377343633165
H        -3.39838236817142   -0.64454724795613    2.78189855014516
H        -1.51611658859607   -5.00740982232464    6.24283564140412
H        -3.80281879917480   -5.97451669083475    5.87604071291985
H        -4.49047028066563   -4.34953144566516    5.96890461241132
H        -3.39409106581275   -4.77283013143712    4.64998193144284
H        -2.68730739350559   -5.91801430133063    8.11780506556061
H        -1.92375072028807   -4.43979473146086    8.69094268166981
H        -3.65909113424243   -4.46958597813345    8.34402618987248
H        -3.19891327951501   -0.20355572553613    8.92289900089181
H        -1.90215045292527    1.87052504369913    9.22615600441894
H        -0.82931709366354    0.54428242457384    8.76382694395466
H        -1.28483974039325    1.76036340634134    7.57638390357295
H        -4.31612705698728    1.90512931744706    8.35373661915681
H        -3.70441136081739    1.83036057173543    6.70201494648111
H        -4.86224346593083    0.62482153382369    7.26567535214479
H         6.40176321793285   -3.40204647493161    0.93200792666208
H         2.66454395903176   -3.56809775490974   -1.07253626845776
H         4.93288669873272   -2.90840242535397    4.24019317099879
H         7.29046812711901   -3.16818632957576    4.42536382633421
H         6.77025389851237   -4.34755383932069    3.22141917195476
H         7.56833022383980   -2.84942760204712    2.71838137145124
H         6.25828108124144   -0.79394594625588    4.31859680711745
H         6.22398521472961   -0.71668602360185    2.55261108955171
H         4.72246059846518   -0.57613495868168    3.47041703844373
H         0.71088397136455   -2.55177132592575    1.90640537354930
H        -0.74083266373672   -3.86701749605209    0.45863633233012
H         0.62736578642988   -4.35361731092816   -0.54980382063936
H         0.55530758332868   -4.85389519854137    1.14958085173857
H        -0.30140514169173   -1.40790508907023   -0.02935500375183
H         1.28014956387840   -0.70663993117025    0.34234911481640
H         1.09701251849761   -1.79802190195639   -1.03117590954834
H         6.39466434316696   -4.05120256572239   -1.24914176302535
H         5.68467455053464   -3.25697272696495   -3.46668156068834
H         4.06784793187561   -2.90164623437733   -2.85814714156787
H         5.45138031201732   -1.98508274897148   -2.26205344526164
H         5.41199652313797   -5.71476732647087   -2.77240829050590
H         4.98659697364914   -6.09783016679979   -1.09942335452536
H         3.79296055312223   -5.36178241716562   -2.16522876986317

