39
CSD_code = PAXDIE | q = 0 | S = 0 | Stoichiometry = C11H17N3O5PtS2 | MND = 4
Pt        2.98497765617627    1.25088602537615    3.34458856477233
S         1.48320042054794    0.77812385675411    1.72155015744555
S         3.65212789428611   -0.94363605024262    3.17430466477816
O         2.25540688761922    3.10681346341829    3.55259416005486
O         2.01328424427766   -0.03919539345863    0.63447475662044
O         2.46863323045362   -1.77815792297313    3.32828257067256
O         6.50086951508617    7.48036872788288    8.99645704689479
O         7.31064491608643    5.67063542476169    9.82901662564993
N         2.90086600390743    3.84127441064195    4.46688927266859
N         4.18586677708455    1.95501677352588    4.77600354291444
H         4.99629095417640    1.57815902340130    5.25192368479882
N         6.62637609243960    6.27098316856523    9.02107915930976
C         3.86977866640467    3.25639047765307    5.08777947867006
C         4.58680645304820    4.00859615673936    6.11554596701568
C        -0.00892850920391   -0.04517016809514    2.34333832755764
H         0.31106835030383   -0.96958406035728    2.81473482677502
H        -0.67333192696638   -0.25720581462087    1.51388923391846
H        -0.47050365432125    0.61552686276991    3.06781840245463
C         0.70227865080699    2.23885819098163    0.97451871808428
H         0.39231729206974    2.88665371452466    1.78653110531636
H        -0.13256416574551    1.93367121036212    0.35437247858254
H         1.45367723124670    2.73916716049798    0.37379894633086
C         4.52219297909856   -1.50775379842571    1.67956364425407
H         3.88346377240063   -1.26063334889236    0.83694857834792
H         4.66631359716784   -2.57963404786093    1.74114365781835
H         5.46540347944598   -0.97924862184508    1.61357358822697
C         4.86917068656428   -1.53608058089498    4.40666791939466
H         5.80022304664274   -1.00474364066455    4.24885200348732
H         5.00179290267441   -2.60538196759113    4.28976810289358
H         4.46999420319151   -1.31926641829857    5.39162040539953
C         5.37585968592746    3.37924913505912    7.08399936411928
H         5.45388293106590    2.30291194093999    7.11134664007484
C         6.04148660050995    4.11743699514392    8.03779965627311
H         6.65108433671406    3.64315591499756    8.79185707018009
C         5.92628493820180    5.50390552593220    8.03671890740931
C         5.13165631307055    6.14898959598352    7.08996562842009
H         5.05446767900764    7.22497294579484    7.11817241212356
C         4.47084916651358    5.40450095707444    6.14129445120539
H         3.84923070201390    5.87434417544631    5.39761627908368

