107
CSD_code = PAXFEZ | q = 1 | S = 0 | Stoichiometry = C57H43O4P2Pd(1+) | MND = 4
Pd       20.58557833256137    2.97790139362302    5.83819331834875
P        19.30814977129440    1.72706768658926    4.55533579500775
P        22.18072882867699    1.25201775431710    6.15797865183016
O        18.04322158490534    2.11848255938823    3.65489977073477
O        20.23528398753618    1.17191021381330    3.38528175872385
O        21.64952660780154    4.28491006671076    7.11627549832999
O        18.82929235434032    0.43489835235839    5.36536258376086
C        14.91822071884112    1.08958672780286    5.33598876577303
C        16.15954632571681    1.00428347500771    4.64372893003389
C        16.08422324554455   -1.27845561890536    3.55672304609089
C        22.21138434056160   -0.37408820383722    5.33090695664786
C        23.87347441188009    1.51436748397577    3.02240862871858
C        21.81909282798294    0.90168359441594    7.91724964441347
C        23.96504143007706    2.89272901172344    2.68922582885036
C        22.60262913933630    0.96625375571752    3.34172797028329
C        23.95366621546797    1.66792362949815    6.12795610391090
C        16.78179995238363    2.16989863684304    4.25557652612405
C        22.44450355843494   -0.36815459068410    3.96508473107149
C        21.57109022227360    3.13610016767750    2.94601200821166
C        14.30087862568344    2.35900856925857    5.49797405962825
C        20.51556626930838    1.16391846472780    8.35036028180315
C        16.78451784874598   -0.29045204869330    4.30925286788333
C        22.49400190674241   -1.57924073586613    3.24189375201006
C        22.79934550335386    3.68994051164306    2.69802249826624
C        22.03574804295713   -1.58862729133552    6.01920528330956
C        16.16578806110675    3.42192587848093    4.39633732187698
C        20.90379824129325    5.08181439696381    7.67422420147046
C        18.08773338122814   -0.53899152884293    4.67059617770207
C        16.71935735249955   -2.52109580000404    3.28839985353421
C        20.17291166563094    0.97553754326168    9.67794864063646
C        22.32480014762600   -2.80283264064897    3.94609485452610
C        14.79835202146108   -1.05213309561170    3.02071111051062
C        24.93888945691424    0.69852380054935    6.29321924111067
C        24.31667380489829    2.98966626024903    5.89566558641328
C        21.47987136742000    1.75485713775672    3.20766916637291
C        19.42344603552110    5.00246675907527    7.41180753562881
C        14.29571561349437   -0.04217122256003    5.90491552980817
C        22.10157919067927   -2.77328591068939    5.33972507479665
C        13.10254944311208    0.07313901704508    6.56274005430052
C        19.24232667133482    4.52987041246766    5.95420879769095
C        22.77031060378060    0.47147606266652    8.83736772880937
C        26.25849643595830    1.29601092754115    2.74175354046599
C        14.15607311880867   -2.02413175492551    2.30469255019264
C        21.12464252797641    0.53782713538098   10.58578282947450
C        18.03984700319790   -2.73725329451564    3.73392380282930
C        14.93589288101629    3.50924612976558    4.98394212889900
C        13.06288384612978    2.43982204832002    6.16971194738323
C        25.22965692136573    3.43600766617413    2.38286410246474
C        22.73373424746983   -2.80267649601648    1.17827540288124
C        16.02219760199192   -3.50723576419788    2.55904453543684
C        22.57339262537697   -4.01309325106579    1.87283831531053
C        22.69550735062137   -1.61083160441724    1.84484902395309
C        21.45622719540108    6.11717091281128    8.59380314315287
C        22.42018217237560    0.28856579703162   10.16395426634464
C        18.72238037153523   -1.75532775451714    4.39193986068519
C        25.04915328407675    0.73760138071537    3.04930859318103
C        12.47197180715384    1.32050576421234    6.68485642172212
C        25.65213168563652    3.34579999846460    5.85837837510265
C        22.37247796777120   -4.01395795399280    3.22465857065236
C        14.76331127848167   -3.26912397563438    2.08466179838683
C        26.27229334139512    1.06206377376153    6.26240602789147
C        26.35073337430923    2.65452276240866    2.40512686626173
C        26.62969343848595    2.38382607729212    6.04998025477075
C        18.63399270936996    6.28019477133441    7.70062603190285
H        19.74166494032406   -1.88908898386325    4.71391182492461
H        18.51608044441268   -3.68296081499521    3.52402702241885
H        16.51108974380929   -4.45244476648693    2.37518572648580
H        14.23598050779601   -4.02754751820770    1.52671693925859
H        13.17419764087452   -1.83377239875042    1.89899528915979
H        14.32526725654923   -0.09403286273139    3.16846794517479
H        14.78000253216084   -1.00301530460487    5.82334213781803
H        12.63847530854677   -0.79998059717261    6.99539572635081
H        11.52443872446918    1.38960525327517    7.19674190821624
H        12.59488540210782    3.40750269452284    6.27403866776957
H        14.44125307466796    4.46427211522260    5.07623491700311
H        16.67038612310554    4.29126343298846    4.00362479257258
H        19.74984740892468    1.49319684748424    7.63391889959216
H        19.16280468174356    1.17031350631029   10.00765881219386
H        20.85696224953093    0.39573811580490   11.62157424440085
H        23.16336865724344   -0.04642980772806   10.87166487346432
H        23.78667285704253    0.29050333369258    8.52017700314297
H        23.54350816464240    3.73286251308651    5.73428043534716
H        25.93264096917327    4.37217953351560    5.67583541225361
H        27.67220738743579    2.66165191602343    6.02419010963234
H        27.03608620607199    0.31104829819757    6.39777469713078
H        24.66271317458143   -0.33847551199093    6.42791493490444
H        21.84727256971276   -1.57151026441908    7.08353601980205
H        21.97179052092994   -3.70907278460155    5.86388703654256
H        22.24625178648850   -4.94204935450910    3.76278214155791
H        22.60952425796285   -4.94400932926049    1.32768900883131
H        22.88827224344895   -2.82241614877701    0.11024035056315
H        22.81628031423534   -0.67599874089177    1.31764024288389
H        24.97745578597369   -0.30899441488519    3.30384955175577
H        27.15228141666319    0.69129615130729    2.75399883377401
H        27.31413742651277    3.07663123968669    2.16373940219943
H        25.29405606284503    4.48246411261142    2.12413704755938
H        22.88966231378982    4.74558387701652    2.48890678063301
H        20.65035281167673    3.71165603215183    2.87804647857565
H        20.95971964113199    6.06210862953559    9.56044676941407
H        21.26753933048648    7.10848162990470    8.18461701314754
H        22.52692888568907    5.97611300452786    8.72046247446322
H        17.58488992330338    6.11807765013815    7.46466937759035
H        18.99498128367548    7.10187717858421    7.08591996221433
H        18.70352086572816    6.56596196285661    8.74682499901932
H        19.05056068707830    4.20431368974774    8.07930380532076
H        18.18240009805105    4.32385028834957    5.77278172688637
H        19.57330002303513    5.32258266536367    5.26201413377814

