51
CSD_code = PAXFEA | q = 0 | S = 0 | Stoichiometry = C15H25BN6PtS3 | MND = 6
Pt        8.85412446453252    3.78237615201841    9.99563905949362
S         8.59308782519508    1.29973064059006    9.14754124677742
S         6.32520877768719    3.87106878959668   10.74136573944967
S         8.25984310778904    4.73552475327462    7.60972042445372
N         5.86837925331360    1.50382689369078    8.89685421739376
N         6.57444939552040    0.35928869631701   10.62662304485300
N         5.40081016353284    3.87712159497074    8.15807246563713
N         5.30319320640613    5.80187474939838    9.20019633696640
N         6.99252966402193    2.43005496168201    6.82947034047038
N         8.97760951374547    2.75693150685269    5.96178676118149
C         9.08126311338883    5.69357115229404   10.70550111372091
C        10.83010036862133    3.76483672529207    9.44449792871736
C         9.37437404029830    3.04794295579764   11.83910686928194
C         6.96638588311880    1.09509453553844    9.55941903716405
C         4.77704901871551    1.03781298009196    9.58199405483762
C         5.20565985156738    0.33204478976504   10.65103348246777
C         7.44445444651135   -0.23835748496831   11.59601710212957
C         5.69478746306127    4.51004881113469    9.30901741172408
C         4.84513243784381    4.79993736681182    7.31117363975501
C         4.78325512630132    5.98985168948083    7.94751707684822
C         5.45757769165174    6.81070374123507   10.20636487734256
C         8.05707417129679    3.25378631325932    6.82177632695890
C         7.27102174063422    1.38972300885731    5.98231298803767
C         8.49479552482018    1.58457337447207    5.44466168845867
C        10.26046538632962    3.33245506350015    5.68458696521460
B         5.71256141210764    2.44411322230578    7.68647558972643
H         4.80244820937282    2.05675312851850    7.01829255673596
H         8.44272736522074    5.81903525579678   11.58137773932632
H         8.75225364945903    6.36644809135811    9.91098777921859
H        10.10855576709980    5.93580018590494   10.97391102400027
H        10.99848152541453    2.83159035731594    8.90328897062353
H        11.51495910123309    3.81421268706875   10.28978914715917
H        11.01573810658364    4.61224388770334    8.78267953420260
H         8.44316658517628    2.83850317984850   12.36938528339679
H         9.97067407292928    3.74282827530768   12.42864055502426
H         9.93514790014500    2.12211630635351   11.70122765781672
H         3.78441729742788    1.25742725313370    9.24899907646525
H         4.66396142604050   -0.17764783376400   11.42030216864739
H         7.30754226450829    0.23499763129713   12.57004105283536
H         8.47234922979521   -0.09014904261985   11.26406764175771
H         7.23814449959016   -1.30626283523115   11.68019879037032
H         4.54697299099401    4.52717038929300    6.32064425392670
H         4.42371707177231    6.94363553854269    7.62187328585427
H         4.49858659397503    7.28981163171652   10.40881579843525
H         6.17745374006458    7.56404386425174    9.88058318306325
H         5.82477230312353    6.32980295092269   11.11347982504627
H         6.57073220902219    0.59334748702633    5.84148912671246
H         9.05984303350854    0.99725922563859    4.75128302011590
H        10.38570025279562    3.47290571126180    4.61008233239482
H        11.05512026945974    2.68524857875622    6.06050461605017
H        10.31354148727823    4.29804111133301    6.18812979175894

