67
CSD_code = PAXFOM | q = 1 | S = 0 | Stoichiometry = C36H24IrN4S2(1+) | MND = 6
Ir        8.92109688537361    1.43838160660402    8.20048230967123
S         5.89679896435461    0.35375651629944    4.82646151700464
S         4.30955072209537    1.51013728687323    7.54765770122968
N         9.34141083167166    3.15932878972143    7.22228132024467
N         8.63247341687764   -0.26741360232548    9.25422274781165
N         8.01496138919725    0.70958711066443    6.28189444836016
N         6.72088004086967    1.79993506608594    8.45976246020931
C        10.59352109704236    3.27016514618560    6.71682798514814
C        10.96447380573856    4.39412350065662    5.97810785250579
H        11.96266817603382    4.46741080889731    5.58007298826724
C        10.05540245039889    5.41047649159945    5.76464085143252
H        10.33139157718001    6.28517010351672    5.19683194589676
C         8.78013916662466    5.28833679129090    6.30184308814822
H         8.04057796722749    6.06079795955018    6.16977220467216
C         8.47338817538516    4.14986893888921    7.01999302128849
H         7.49256376047307    4.03408762105800    7.46104829725595
C        11.46414817728118    2.14602541341360    7.02580576863604
C        10.87487008481368    1.12338244887820    7.80049302253095
C        11.65652446864032    0.02531354782488    8.13560485204745
H        11.24625281496108   -0.77395550463692    8.73652636934553
C        12.97410402089035   -0.07000006029221    7.71349331494179
H        13.56250127553577   -0.93278605074305    7.98721521794028
C        13.54036099903847    0.93690104762328    6.94718458965908
H        14.56631737071419    0.85828446261000    6.62275085071832
C        12.79053933930804    2.04361062018616    6.60433982858642
H        13.23926815666783    2.82438725279972    6.01008648193075
C         8.88944309828084   -0.19843830069031   10.58248056935298
C         8.65628789032914   -1.29805400964116   11.40911758345796
H         8.86122356487048   -1.22752721349936   12.46418525899617
C         8.16938813363894   -2.47323261185005   10.87360908827974
H         7.98702900255823   -3.33037661307967   11.50259253870665
C         7.92707931220514   -2.53335659361132    9.50696304257962
H         7.55791685568904   -3.43299427532886    9.04256153427932
C         8.17405504246854   -1.40979739757592    8.74387863653555
H         8.00771600685702   -1.43358516886711    7.67538886671078
C         9.41966836987018    1.08277069047255   11.02334827036649
C         9.58093539418386    2.05020991677127   10.00805105967076
C        10.09562484219184    3.29039653858418   10.36406717881107
H        10.24450002114258    4.05531451056341    9.61495057717338
C        10.43179334997556    3.57476618049886   11.67906493951458
H        10.83149622259148    4.54555616990964   11.93107299107178
C        10.26151178751633    2.61951742096549   12.66931199923428
H        10.52630688027611    2.84523355055899   13.69054486076213
C         9.75865735191047    1.37595830584842   12.34490500905392
H         9.63295771822315    0.63672089272842   13.12062318146951
C         6.71468972249534    0.84995645308743    6.28387389026080
C         7.44701951705769   -0.08073057107819    4.16816923300367
C         7.73315403361372   -0.61832963383205    2.92358606721141
H         6.94389480878440   -0.81555323454703    2.21614622665714
C         9.05234369310118   -0.89243395791001    2.62443669920543
H         9.30057464782930   -1.31157214472559    1.66223597273030
C        10.06863224533388   -0.64005726539248    3.54849545012341
H        11.08934201671438   -0.87013874591482    3.28665141212077
C         9.79342332169145   -0.10683376480649    4.78708733377955
H        10.56886763984842    0.08522797394507    5.51027000882683
C         8.46697168617281    0.18541384776385    5.11008081921050
C         6.04343536011946    1.37797931787660    7.42386173619816
C         5.90542540263707    2.27449310112855    9.44051202317315
C         6.30487185471995    2.81760756015650   10.66306764071087
H         7.35538967165169    2.88734817377054   10.89313182503987
C         5.33680153109575    3.25395554343170   11.53862124929574
H         5.63186493518625    3.67585836789071   12.48637481403506
C         3.97915680198474    3.16423489749403   11.22371159207592
H         3.24494477029147    3.51433907550832   11.93184512707507
C         3.56054884153665    2.63870295488214   10.01811933440031
H         2.51411846973079    2.57243440021964    9.76745263380700
C         4.52845304923096    2.19780234506324    9.13015068954895

