55
CSD_code = PAXFIG | q = 1 | S = 0 | Stoichiometry = C28H20IrN4S2(1+) | MND = 6
Ir        8.01775986809782    3.94284194055165   11.83715348394172
S         5.07875406027634    2.09417282764140   14.90462643362524
S         6.76015818912901    4.83676429946874   16.20598134042301
N         6.41276420811076    4.80280362850781   10.94540100004150
N         9.70069933134302    3.09988085095786   12.59126651420660
N         6.54877839505973    2.62220717694672   12.86854896029707
N         7.76689239150637    4.87629702514364   13.84572004762056
C         6.06729012257140    4.30515566715457    9.73405654749043
C         4.94122473586526    4.78632589878993    9.06433144562667
H         4.67732802835695    4.38145302369518    8.10169579382871
C         4.17357158773388    5.78238595961972    9.63259408679801
H         3.30226860797920    6.16356865330933    9.12362413591541
C         4.54890815069020    6.29071346158922   10.87008154913416
H         3.98523916549038    7.07542894480444   11.34717709459226
C         5.67180732972413    5.77130524872454   11.48231368095676
H         5.99567051173829    6.15707664185337   12.43962157300817
C         6.96375392324588    3.27410780177191    9.23346571087679
C         8.06116956357008    2.97223906381321   10.06763292444217
C         8.96106235657922    2.00646763647396    9.63847641948017
H         9.82142670331757    1.75464784337659   10.24229631873849
C         8.78466942376715    1.35195847708893    8.42852674563369
H         9.49912101818555    0.60577784914913    8.11479939708371
C         7.69982797508204    1.65200809175302    7.61970203609519
H         7.56768559279469    1.13997619010517    6.67924792184795
C         6.79134228887913    2.61139920224239    8.01739836002752
H         5.95069396270772    2.84124452273817    7.38123781427656
C        10.85316871340192    3.77856969792787   12.37800549407373
C        12.05854886689833    3.31328292630392   12.90591949116544
H        12.96791192551730    3.86268200981072   12.72876244774012
C        12.08400820999694    2.14886226513403   13.64606876814413
H        13.00987635411401    1.77809412159245   14.05691957738616
C        10.89488647923785    1.45829146881215   13.84539351541675
H        10.86856207324582    0.53986312158190   14.40835585639927
C         9.73577054821951    1.97151086393914   13.29899505788825
H         8.79770058314722    1.44809566910150   13.42607632304149
C        10.70003894526794    4.97707707561235   11.56721805667932
C         9.39047314171792    5.23020441578805   11.10642027828269
C         9.18305707532524    6.34957814011873   10.31223531134594
H         8.19753044416314    6.57187180799196    9.92811540262993
C        10.22967847666744    7.19929766025659    9.98653035183720
H        10.04445250917357    8.06245030354872    9.36499220574705
C        11.51057058122647    6.94560958721747   10.45133025620493
H        12.32097038888774    7.61036757682907   10.19546085755683
C        11.74860616676883    5.83716637162108   11.23785449344970
H        12.74888050078393    5.64480969996437   11.59374966633698
C         6.27285026012577    3.04716283068519   14.08246845483150
C         4.98076102630852    1.09699276764491   13.51163483161064
H         4.31499515541364    0.25864678816896   13.48656561496036
C         5.82966397522496    1.53200876437342   12.54024369057420
H         5.96513917838411    1.08486631877623   11.57199328146131
C         6.93276521533206    4.19679848300717   14.60256993489850
C         8.30187326195983    5.92463842242814   14.50016587514039
H         8.99949570362664    6.56303853494057   13.98871264546750
C         7.87918192310019    6.06805684592655   15.78632443216618
H         8.15781482496070    6.81779753363823   16.49834049155688

