77
CSD_code = PAXGEB | q = 0 | S = 0 | Stoichiometry = C36H36Cl2N2Pd | MND = 4
Pd        2.84789143127113    2.95720869632601    6.70535071748980
Cl        4.31593810895805    3.57422987547169    5.12795395645471
Cl        1.52480095736075    2.19819019813874    5.06308929425615
N         3.99075616331089    3.55171157790191    8.22550760815149
N         1.68713478847919    2.30496455806071    8.18214186093367
C         3.51141662176508    3.17837305426041    9.36635676963911
C         3.90870354456238    3.35136381036472   10.75690611054448
C         4.95201438050559    3.95841882987444   11.41407509390377
H         5.74976714635294    4.45060839956033   10.87835414092679
C         4.96039905248065    3.92941111372776   12.82074878084257
H         5.78464327553563    4.40368911797441   13.33290306178215
C         3.96897731324766    3.33001385069805   13.55978073238930
H         4.01736297958463    3.33402208270988   14.63876742515943
C         2.87242734624140    2.71105255993330   12.91717120277210
C         1.76060554506310    2.07759002462776   13.51803530475459
H         1.70107235616861    2.02043769280050   14.59494098674855
C         0.76035437158460    1.54619840094401   12.74015107028214
H        -0.08360236276677    1.07274500816646   13.21990266535649
C         0.77950201512565    1.59195162237954   11.33388266817489
H        -0.03568443121099    1.16572653942552   10.76925981190877
C         1.85248578594334    2.18840564904872   10.71568538597855
C         2.24176379350669    2.47299157344076    9.34047859802966
C         2.88206590986829    2.74035031904589   11.52057777251130
C         5.21365046792469    4.21224769751500    8.10306627454299
C         6.40627336149498    3.50026606306427    8.29568533282263
C         7.60078935391557    4.18128602448166    8.11829170453051
H         8.53374925682570    3.65216858203312    8.24676959339417
C         7.61257336530200    5.52359511344129    7.78095802616368
H         8.55413538741045    6.03671306725215    7.65508935244593
C         6.42463525357492    6.20426650529247    7.58442488182566
H         6.44253864606097    7.24539261556002    7.29781887912375
C         5.20398733607855    5.56081961379233    7.72251330612044
C         3.91198212749510    6.25045881722327    7.37713356721529
H         3.45624066238539    5.65707542704611    6.56987562913107
H         4.13992697462327    7.23677136557732    6.96831400126860
C         2.89279781908978    6.41935929102499    8.51576483592611
H         2.78769535673268    5.49976880570783    9.09113768075017
H         3.25683612197204    7.18778871450622    9.20311759642507
C         1.51165053103865    6.83334111095139    7.99148611915013
H         0.90196061143246    7.17298812810440    8.83287636904487
H         1.64396496335888    7.68477835841473    7.32004195772832
C         0.75357690904188    5.72794286246274    7.24418383433639
H         0.05589683608751    6.19476856056758    6.54526509236545
H         1.46368088765665    5.12955571230269    6.64101588200269
C        -0.04647410579396    4.76659991781871    8.13396752141370
H        -0.82408874277875    5.32207455804404    8.66443409230397
H         0.60475993926597    4.33612197195157    8.89455174925450
C        -0.69551295374593    3.67058037751444    7.26198499294646
H        -1.72712892442270    3.95215588784896    7.04548333064385
H        -0.16291152795938    3.64345944208897    6.30174955035895
C        -0.68574624817057    2.23845917633412    7.72603354859591
C        -1.85008498805259    1.48367422530953    7.67079688646215
H        -2.78226503995730    1.97312540699933    7.42987737002517
C        -1.83105056940343    0.11828060971676    7.88769691535172
H        -2.74811279951193   -0.44886859863224    7.83141843443342
C        -0.63483409934534   -0.52912001604673    8.14259818262993
H        -0.61904370888640   -1.60184047096871    8.26816256947033
C         0.54980371938834    0.18301118995983    8.24501709255268
C         0.50146368224768    1.57394107263424    8.05977290224279
C         1.85566525979223   -0.52445274218572    8.50983271180812
H         1.64367519962729   -1.56302945428587    8.77469008019752
H         2.35015219975460   -0.06921683237446    9.37213881737688
C         2.80883417739264   -0.51059790879846    7.30203528104256
H         2.37574348689882   -1.13583494312644    6.51867991106680
H         2.89355942850894    0.50611637420625    6.88235682329546
C         4.21055724136839   -1.03105334075467    7.63824985361489
H         4.11108249400196   -1.98904908951220    8.15624552552305
H         4.74551082381949   -1.21573309599028    6.70434997751112
C         5.05429387184198   -0.08835740008726    8.50612940978303
H         4.43334433223112    0.31299653054518    9.31339030594347
H         5.85188057161007   -0.66864079440615    8.97858371936153
C         5.69302967662176    1.07566871443194    7.74092450997709
H         4.92667537668243    1.59878066250237    7.14782740245430
H         6.42291931599018    0.68890301187009    7.02772329643377
C         6.39285180490827    2.04957591300485    8.71151294853256
H         5.89975957763429    1.98074927963634    9.68755537324695
H         7.42455320600019    1.72421337354900    8.85947797884094

