94
CSD_code = PAXJON | q = 0 | S = 0 | Stoichiometry = C46H46SiZr | MND = 12
Zr        7.16596020629267   10.37278551277813    5.89132934358570
Si        3.56492406137784    8.06679737775930    5.33927970704455
C         6.40107231915069    9.04248163443330    4.31951714873458
C         5.25118376359140    8.91036862401304    5.02385931053975
C         5.06154122597084    9.83570103715984    6.18828071430289
C         3.79571823298320    9.48298543779972    6.60051365921230
C         6.79136751233504    8.29710233968355    3.13683220485074
C         5.90041241388408    7.52129793237186    2.38463484469411
C         6.32725012316027    6.85634158338624    1.25319742024435
C         7.64825560028511    6.94616439149200    0.84134795623449
C         8.54446379759956    7.71279871035802    1.57102842646333
C         8.12195346508619    8.38494467146306    2.69991447257851
C         2.99578459748095   10.06343028715587    7.64884329905373
C         1.90828816430333    9.36788464817656    8.18474818481360
C         1.15264970775859    9.91525672830044    9.20160608797804
C         1.45685738524079   11.17256111394039    9.70049022983749
C         2.51909145038414   11.88447975014198    9.16405609938757
C         3.27768880381185   11.34001670743061    8.14902119347454
C         2.19775289954293    8.18215774661938    4.03967846498902
C         1.05118745640412    7.40215472375117    4.14176938206844
C         0.04699146232378    7.48612950166044    3.19475360453885
C         0.17404641463402    8.35732368638512    2.12541629142590
C         1.30778354467617    9.14470104458038    2.01246100118512
C         2.30753590644890    9.05698776742824    2.96368224259192
C         3.63220866446177    6.31648828427887    6.05217678695948
C         3.91840427915789    6.10429237017225    7.39709715955676
C         3.97945306314652    4.82570655189019    7.92043234747091
C         3.75587815457661    3.73149027528525    7.10146589996770
C         3.47400102653032    3.92520188704970    5.75917995464973
C         3.41542151078518    5.20644174502216    5.24238238381704
C         7.87381075999393    9.40600904031086    8.08038081261616
C         7.53496489763346    8.28389710974051    7.28525087863875
C         8.46667984408920    8.18580086752028    6.23191112182463
C         9.38855236890638    9.24376347026951    6.36332612228461
C         9.03086608255127    9.99138423139305    7.50667208305189
C         7.21894194356843    9.85721392339273    9.37149111908302
C         6.84325403934128   11.34392040146809    9.24969779239513
C         5.94527144598313    9.05285840717121    9.64704696312069
C         8.19889711373614    9.66655390136555   10.53904073328818
C         6.60702858353304   12.38398992519273    4.45241977215452
C         6.73801474192931   12.84051394255117    5.78893169823019
C         8.08720099412367   12.68133516659703    6.18590769181168
C         8.79142115297729   12.10884273473171    5.10864268249609
C         7.88063917346131   11.91025627407914    4.04670375576963
C         5.41294300049980   12.62520574640852    3.54959970107719
C         4.09851659071988   12.46963838582437    4.32463072374938
C         5.41520578835094   11.65109311561838    2.36615153704772
C         5.51253205439622   14.06396702678716    3.01289341481855
H         4.86874744456259    7.45284440341257    2.70013258229483
H         5.62656472643929    6.26227545981221    0.68334073837727
H         7.97748838894172    6.42485356339214   -0.04543388275912
H         9.57441056208003    7.78645088779376    1.25012025172134
H         8.82059026196521    8.99276436859536    3.27428954620732
H         1.67292400833610    8.38717273384567    7.79409772110511
H         0.31881842996646    9.36221338008194    9.61059537300699
H         0.86418794742102   11.59907437998434   10.49652327576788
H         2.74920458993831   12.87186663431201    9.54016233518596
H         4.09488907545545   11.89814940419642    7.70761580121217
H         0.94840950468411    6.71702934065136    4.97159435256809
H        -0.83691621305284    6.87092630540976    3.28804476739836
H        -0.60854849961070    8.42210389485047    1.38309007021353
H         1.41193622208782    9.82553444411325    1.17924698508374
H         3.19194201457899    9.67032451823208    2.87174338129991
H         4.08595266182499    6.95589148478096    8.04193645210561
H         4.19864522465054    4.68029900811558    8.96904030971482
H         3.80033602033899    2.73118812887041    7.50768520531819
H         3.29888918226795    3.07428366400985    5.11586198118169
H         3.19223280227868    5.34999895742199    4.19442347781200
H         6.75796849335397    7.55857379301059    7.48575450027741
H         8.53106355187776    7.36633431877515    5.52730536536448
H        10.30247310077784    9.35888832140178    5.79133991441746
H         9.63343700088442   10.77583803882154    7.94979875515319
H         5.98894351642336   13.39158874172092    6.34558798458879
H         8.52779177204930   13.08608991717855    7.08944962312621
H         9.86579515562550   11.97810210560079    5.05034347704316
H         8.15125506973048   11.60011659238109    3.04522422715174
H         7.73566484494621   11.96783512309293    9.20336076144825
H         6.23545593828088   11.49332630890608    8.34440135277461
H         6.26132657561577   11.65702471058531   10.11548725150740
H         5.24131188124849    9.16435725342476    8.82287911135935
H         6.17861070131351    7.99872825992033    9.77655004360333
H         5.46706010613690    9.40807289378081   10.55784374303631
H         8.47041031753128    8.61788065604044   10.63218301362107
H         9.10952520130734   10.23920730672213   10.38066207720771
H         7.74471712649335    9.99150918982298   11.47275435198673
H         4.05472762429288   11.49249899301172    4.80807348099824
H         3.99935184462258   13.24039872146167    5.08532728004906
H         3.25153564169498   12.56171965194445    3.64796325752568
H         6.26689227393087   11.82964011656511    1.71428131689059
H         5.45880104160491   10.62231264477691    2.72343163654744
H         4.51133238120401   11.78265933420955    1.77469174933044
H         5.50250418504309   14.77826586607468    3.83268269151119
H         6.43724432654154   14.19788851955059    2.45652888562166
H         4.67512818313704   14.28047991695406    2.35338899733675

