37
CSD_code = PAXLUW | q = 0 | S = 0 | Stoichiometry = C14H10F3N2O6ReS | MND = 6
Re       10.33826978171819    2.12150522168848    7.00157145264484
S        10.08241283631079    0.18108714370181    4.73902130500311
O        10.34318317536459    0.03376629012452    6.17383610488398
O        10.89380116917255    1.18830439973914    4.11364075258644
O         8.68589314881372    0.15243313680818    4.41236471129284
C        10.76310726046296   -1.46697871038055    4.15258277669984
F        12.05384475236358   -1.56855196850562    4.48873341278781
F        10.11573277980630   -2.46363481535116    4.77178658713113
F        10.66210939625308   -1.66824951286223    2.84161205181026
C        11.93396490286485    2.58699542986164    5.96018453605413
O        12.88749110957545    2.81883052991221    5.38781805913411
C        10.35302241937612    3.77968532534341    7.98576084372295
O        10.37285252489902    4.73590206936322    8.63497393553414
C         9.22593336861346    2.85558522289558    5.56416903685536
O         8.60629567976259    3.24025091633446    4.69418225254830
N         8.62266430943906    1.31006521807005    8.06117715805193
C         8.49852936334703    1.38073995570999    9.38844785069657
H         9.21495830966007    2.00521010240626    9.90744525826901
C         7.51336449900452    0.71375396522435   10.09229491590881
H         7.46168399195274    0.80747773911571   11.16549378500639
C         6.60476346633794   -0.06842457195915    9.39469350229180
H         5.82595967900566   -0.60778215815805    9.91215418357829
C         6.72196857127558   -0.13104283821175    8.01688283239575
H         6.03908377537609   -0.71586137646100    7.42199403873512
C         7.73768344197988    0.57463891794383    7.38989437976930
H         7.83874254318046    0.52735622927473    6.31239770230053
N        11.58870259718530    1.08041438847915    8.48777520183739
C        12.67328781371419    1.64689418800021    9.02601392390543
H        12.84506445861130    2.68624520628489    8.77772479526017
C        13.54358953129554    0.96923224127657    9.85919568857851
H        14.40537507768668    1.47718454891075   10.26128529712217
C        13.29257915629848   -0.36192395464849   10.15753260111343
H        13.95591822073708   -0.92328478585913   10.79755032564758
C        12.16690822046939   -0.94932432141457    9.60753438754760
H        11.92152552767163   -1.98106092581955    9.80389062089602
C        11.34780357562026   -0.19379660087981    8.78450292406343
H        10.47862956479790   -0.65034184596487    8.33218080833564

