81
CSD_code = PAXMIL | q = 0 | S = 0 | Stoichiometry = C39H34Cl2O3P2Ru | MND = 6
Ru        7.04371365788322    2.78920615842583    5.17961379800840
Cl        8.83522530684029    1.52872181087764    6.15366062323363
Cl        5.18839635193941    4.22476318644292    4.80938311157319
P         8.05763124684790    4.43692935170950    6.40807557385047
P         5.94230589854686    0.91930838329790    4.31700439893994
O         8.38643985191066    3.36954946078455    2.59347526244661
O         6.04254396305569    2.64281502353301    7.26066345906990
O         5.33319809893183    2.55216419014118    2.26796377164351
C         7.86818478497533    3.11428268055294    3.58617603102519
C         7.91630722609882    3.79604446255390    8.11086365677206
C         6.82468986923774    2.94463013234583    8.34385727888125
C         6.59872047148570    2.44384396178625    9.61768039764355
H         5.76420331150043    1.78844095818027    9.81370293517629
C         7.47232370914343    2.76862353243918   10.64414497400932
H         7.29460419755669    2.36811659478858   11.63092807088391
C         8.56677086106373    3.58088025551272   10.41161094773319
H         9.24975387465317    3.81472593141365   11.21376538383581
C         8.78892010752142    4.09488356453239    9.14432156956383
H         9.64450132925087    4.72546115076470    8.95269901102571
C         4.70925893809407    2.23291220349071    7.49363919769159
H         4.66151394828977    1.18379436047796    7.80792149618748
H         4.17780801824071    2.35545776070426    6.54608951617880
H         4.24135718388264    2.87241284976950    8.24833179529608
C         7.23031216364112    6.05125938824366    6.49756865436064
C         6.58913935559347    6.54697510526341    7.62414775451831
H         6.58346077698957    5.97590068777060    8.54384431535657
C         5.95744172132844    7.77790670266597    7.56467032647245
H         5.45783970964360    8.16599857859990    8.44082896114873
C         5.95862963832562    8.50650169876320    6.38800797311930
H         5.45856755014069    9.46307033670703    6.34693457167590
C         6.59011962572098    8.00686176287743    5.25863762643593
H         6.57937307127218    8.57123413893540    4.33785313737781
C         7.22165608801652    6.78126009925510    5.31140182592083
H         7.70332544712356    6.36115884645277    4.43559770766340
C         9.78783203144494    4.94557283827042    6.21322624335245
C        10.25851891334823    6.08633142122870    6.86080180644880
H         9.58711345170192    6.67620497998629    7.47122313975541
C        11.57702037612207    6.47138204396818    6.70700454098684
H        11.94151118545497    7.35319677184093    7.21398360190672
C        12.42797570344602    5.73218388039349    5.90018212207938
H        13.45753796099343    6.03702468804363    5.78293506996174
C        11.95635948888464    4.61143215699313    5.23776000527829
H        12.61525696952044    4.04201763540948    4.59944958685861
C        10.63843092841278    4.21812356565222    5.38945841779360
H        10.26439280487958    3.34249985672885    4.87588010750034
C         4.23561402498653    1.23427776705019    3.80697102603775
C         4.13755546843883    2.19561760236834    2.78712792924471
C         2.89043264166503    2.65975927025147    2.39484995097540
H         2.79400834650116    3.41214726150197    1.62853877046822
C         1.75556757780026    2.16640378092402    3.01887562659545
H         0.78637582463216    2.53279642785589    2.71417953713126
C         1.84825070549405    1.22529655718963    4.02920643111853
H         0.95560820206389    0.85705352833056    4.51204333404678
C         3.09166388132732    0.77025371927462    4.43663182708307
H         3.17213564797887    0.05433664372065    5.24330906151941
C         5.37597449770455    3.63985879729857    1.37061862199464
H         4.80421611378199    3.42449312571230    0.46217990444082
H         6.42455809926343    3.77537019019280    1.11354125891815
H         4.99525674899553    4.54622221364469    1.84994259356576
C         5.77164160769566   -0.58064917154665    5.34934986510885
C         5.10672114112940   -1.68824102305593    4.82584713835991
H         4.69666595823051   -1.64234041028146    3.82670241699346
C         4.97567943591122   -2.84012118584592    5.57672812231301
H         4.45778073128845   -3.69451089398270    5.16531583719360
C         5.51330039668687   -2.90413647588559    6.85350823568642
H         5.41218784674450   -3.80742589741836    7.43731677433016
C         6.19032311051914   -1.81445295771562    7.37134639540055
H         6.62689942298228   -1.86616666840341    8.35848169213110
C         6.32074355618897   -0.65654585471466    6.62254101457340
H         6.88541817904168    0.17577074428534    7.01882956641194
C         6.73463227480548    0.15367321266850    2.86758611978039
C         6.02350221125338   -0.33014984337820    1.77640377719711
H         4.94653670176023   -0.23326866000086    1.74377689373782
C         6.69855894736204   -0.91664260191237    0.72090378761992
H         6.14494112964909   -1.28428846027975   -0.13141992477567
C         8.07859811360861   -1.03051336458686    0.75204672982192
H         8.60034474883808   -1.48545199596987   -0.07733541632411
C         8.78836220045867   -0.55909449550777    1.84447828047843
H         9.86434281403428   -0.64860901543191    1.87111361204424
C         8.11999390068178    0.03198196997022    2.90060676619718
H         8.66512062156664    0.40373101512443    3.75988668595352

