49
CSD_code = PAXMAD | q = 0 | S = 0 | Stoichiometry = C22H20Cl2NO2PRu | MND = 6
Ru        0.70481788635129    1.83605704482712    6.53409307689221
Cl        0.84171978986432    3.43474013488685    4.74093971174804
Cl        1.38892648799818    3.42500132830976    8.12458131950957
P         0.83456780775595    0.43341171585434    8.33911714996618
O        -2.07346571714053    2.90839178888233    6.75338310561780
O        -0.11307880736390   -0.14688410737076    4.44655323981628
N         2.93517395495305    1.31300495714391    6.48374119143435
C        -1.03396020819354    2.45373031860335    6.67044603860133
C         0.22401736804255    0.59261055477371    5.25113193094431
C         2.58145493981529    0.56652906141494    8.80412091022845
C         3.45417030209024    1.02518404595653    7.81241518032378
C         4.79926303633187    1.15993034668063    8.12871215345591
H         5.50855719394691    1.50725884671680    7.39426508970123
C         5.25764428441300    0.86594617024606    9.40279766432020
H         6.30603807416982    0.99040795871739    9.62797747886577
C         4.38476578711630    0.42793511905761   10.38260906130936
H         4.74426221664322    0.21424482409472   11.37748106772862
C         3.04348697059122    0.27720724304978   10.08192989770062
H         2.34356741837046   -0.04617443012954   10.83905576316878
C         3.17956135344714    0.12624089999100    5.64642643452802
H         4.25111286990495   -0.10802460405766    5.61371899714861
H         2.83490074526458    0.32108061426463    4.62987990321014
H         2.64542455443403   -0.73870682585478    6.04712182812365
C         3.63660151146187    2.45859987555155    5.87945233309925
H         3.61294270555263    3.30242500593859    6.57007706902804
H         3.11999082581658    2.74998860016618    4.96287783789860
H         4.67371905161252    2.21546564980846    5.63017427199367
C         0.61001809351462   -1.33259619717071    7.95881621442970
C        -0.63613591752566   -1.68953050049726    7.44812161061221
H        -1.39054582521208   -0.91967695461762    7.32841125908991
C        -0.89330917509478   -3.00047364563782    7.09879944424859
H        -1.85934450410464   -3.27536191753061    6.70334741662124
C         0.09597296347981   -3.96133232798664    7.24927074462517
H        -0.10081646174596   -4.98543031762080    6.97020018525098
C         1.33695425568140   -3.60981712859406    7.75273346955807
H         2.10629585216316   -4.35913470917573    7.86803410364448
C         1.59893843035994   -2.29732012603423    8.10922935149236
H         2.56796052943761   -2.02359992169463    8.50591929533846
C        -0.11858583530658    0.60582173253870    9.87220811452197
C        -0.73185676344593    1.81721976733574   10.17411506399221
H        -0.62455037587471    2.65404586731926    9.49795473721901
C        -1.45879371223477    1.94872911566825   11.34389007924745
H        -1.93165708157269    2.89072762225079   11.57693012091116
C        -1.58082577988412    0.87609948297315   12.21169018708949
H        -2.14866688192223    0.98053135010067   13.12421283921812
C        -0.97968944811516   -0.33548780105487   11.90788586402728
H        -1.08051092368300   -1.17425433447145   12.58105513998700
C        -0.25312678906761   -0.47724552587006   10.74050066443966
H         0.20129294690603   -1.42801566775485   10.49569438806913

