24
CSD_code = PAXPAF | q = 0 | S = 0 | Stoichiometry = C12H8CrO3 | MND = 9
Cr        1.79421753115957    0.63659741090953    2.54921285782519
C         4.41791121957912    0.61728769251493    1.44998182940816
C         3.11393984944566    0.62394499162202    0.68326959806007
C         2.28995710058071    1.72194689762949    0.67498499529968
C         2.25721791290489    2.75942801975562    1.65611231666572
C         2.79149872606149    2.72891000674941    2.93150217165846
C         3.49444487906780    1.65239888583630    3.55352385194687
C         4.04652408355468    0.56899744919092    2.91583487640478
C         5.20940045832877    1.80246523543648    1.14796238634293
C         5.81886324053583    2.80783324154416    0.92407826364568
O         1.86978024346872   -2.33896061984846    2.45322667597302
C         1.85524640096964   -1.18885334702690    2.48410386788274
O         0.31983340910843    0.24736039493913    5.10726102261579
C         0.95320892756123    0.42920408144050    4.16111883098624
O        -1.07058170457403    0.32757105227167    1.79601279734784
C         0.05176392032512    0.48005416589986    2.01167171203784
H         5.00026889738892   -0.27138727193027    1.18457530348116
H         3.02513752475791   -0.09036772045491   -0.12691360590207
H         1.59484704239476    1.83561857714301   -0.15364427664520
H         1.69218715340841    3.64685443140464    1.38670376922983
H         2.60217149257676    3.59499597313715    3.55874790420959
H         3.59902516991629    1.72031753604698    4.63381254953262
H         4.54774138707498   -0.17981738924078    3.51821140371582
H         6.37689513440465    3.67150030502999    0.71594889827694

