34
CSD_code = PAXPOW | q = 0 | S = 0 | Stoichiometry = C10H13Cl2F3N2O2PtS | MND = 4
Pt        7.68693005529649    7.84568350652254    8.52354595002264
Cl        7.93890254983042    9.61002372994459    9.90319174477873
Cl        9.10702662795895    8.67353294124370    6.94753351830125
S         6.08950454172471    7.18253431614005   10.02568799932868
F         8.68348908806897    2.35090716862618   13.23046532144981
F         8.30081256683692    4.40551274213937   13.73946518604207
F        10.27804456719730    3.79161512529844   13.15784129562103
O         7.12590755489211    6.61148752357294    5.93678504424328
H         7.63414536247632    7.43889745934178    5.77386487091289
O         5.46801204644614    5.88518927844317    9.78121542253910
N         7.46612501979863    6.27627579499855    7.25183375122856
N         7.07213686843087    4.08413665607475    6.64376715192465
H         6.83740010925270    4.39956538757360    5.71602465131307
H         7.22545377288531    3.10828014625523    6.81598740769189
C         7.46100098773270    5.01636414092743    7.53181014610574
C         7.88687868330718    4.60912831770446    8.88089893995890
C         4.75960006124079    8.42039550104744   10.03074702436740
H         4.34641413461884    8.46583087915985    9.02811247720021
H         5.20034420839207    9.37281039619310   10.30241331312760
H         3.99566213975495    8.11336913867785   10.73550027446217
C         6.52074701904658    7.25150945625293   11.79066061637667
H         6.95638063520646    8.22542663885004   11.98013109381423
H         7.24045907632797    6.46696876183647   11.99446134565898
H         5.62145300173574    7.09039917751480   12.37265763819128
C         7.20968275033790    3.59853373782744    9.55646360635125
H         6.36511226839300    3.11410172047293    9.09416038654618
C         7.57331369170741    3.26177428334470   10.84607365850675
H         7.03751561148789    2.49424948257819   11.38245122374270
C         8.63031969612590    3.92534357768316   11.45620167291414
C         9.33373250049441    4.91515577945577   10.78034364819652
H        10.16346259650413    5.41239696044633   11.25855362212297
C         8.96291225374909    5.25577654073859    9.49174485965383
H         9.54029295222069    5.99306923354141    8.94472392607844
C         8.97962500052417    3.61095449955711   12.88438121123048

