62
CSD_code = PAXPAG | q = 0 | S = 0 | Stoichiometry = C33H23MnO4S | MND = 8
Mn        7.12143541900343    2.45412282859864    3.45665470092207
S         5.00220814668338    5.32539565689582    5.13331393129914
O         9.37314197353528    6.56924231819338    4.78491019701543
O         4.27319302343104    2.99101154567804    2.97137770696994
O         7.98167589079774    2.08543028445698    0.67274651588782
O         6.17237386606451   -0.23923828880755    4.14321782648114
C         7.55739419345468    4.41248127280326    4.37337034838805
C         7.73683068527443    3.33850356253464    5.30219187348113
C         8.68031440574516    2.31670591617755    4.96219537866224
H         8.79828666339586    1.47807190017543    5.64688118192639
C         9.47936260106249    2.40801277550015    3.82732744775953
C         9.67017036675528    3.78393585627676    3.22323807670080
H        10.09468942810076    3.70565887772115    2.21989779881253
H        10.33881519711853    4.40094395087973    3.84459355955108
C         8.28720101632350    4.40180128509646    3.16068990468107
C         5.39730346930174    2.81916420491909    3.16555563167492
C         7.61454912978210    2.19856507694913    1.75374230561175
C         6.55738892281704    0.81251915480648    3.86965574524533
C         6.66801371451046    5.52488408182743    4.71834414155175
C         7.03944435403748    6.85448558374282    4.75244566893294
C         5.95427599162035    7.70401463066056    5.09734744636398
H         6.03582525994621    8.77165186671958    5.18648182620742
C         4.81039218106095    7.02221983075282    5.33794729164745
H         3.85331546194063    7.40907919453884    5.62609479868854
C         8.42851367579106    7.29704015723230    4.55891659503866
C         8.59968454754602    8.72120216337592    4.09881583765000
H         9.63196855468837    8.88670416200782    3.80188352041197
H         8.35816290822677    9.39716675126508    4.91743361215823
H         7.93343446772591    8.93000735576319    3.26520675513080
C         7.22010143177189    3.43681191910804    6.68451268158758
C         7.57639497652971    4.53840062521068    7.45896764765410
H         8.22208425378948    5.29775917019320    7.03974293427857
C         7.11965932381602    4.64963264469897    8.75870317501784
H         7.39975470876561    5.50764794893310    9.35227171985676
C         6.30904435276312    3.66486890819587    9.29844476651230
H         5.95079184098705    3.75606286109830   10.31308380872471
C         5.95930611754476    2.56357658919268    8.53517290814680
H         5.32638835897895    1.79433581929103    8.95206222377474
C         6.41251069919765    2.44732990929574    7.23411849668397
H         6.12218626245131    1.59893550672280    6.62773073887707
C        10.43360582127334    1.34182608064560    3.50109622613454
C        10.06445296336599   -0.00131800174191    3.59880089242735
H         9.04529516629264   -0.25507111353357    3.86026544221626
C        10.97128487565650   -1.00466636153456    3.32269572846310
H        10.66511974460179   -2.03757203962594    3.39681799964379
C        12.26582683341338   -0.68890874378912    2.94209887050466
H        12.97438349337741   -1.47361989060049    2.72343571177724
C        12.64255022611237    0.63883273146381    2.83466318113655
H        13.64923244869262    0.89287996411027    2.53633125110207
C        11.73657620577085    1.64705065008710    3.10521586236765
H        12.05235552590736    2.67693813276886    3.03166023164223
C         8.03364763800868    5.44760175796442    2.15473204556108
C         9.08018271720279    6.20804009109479    1.63386978772174
H        10.09375302656711    6.02456830035130    1.95500717236802
C         8.82822773488426    7.22969102871095    0.73658619063034
H         9.65102521071475    7.81383612107056    0.35058871716544
C         7.53332422518003    7.50790939928272    0.33551386622735
H         7.34055200359054    8.30686335004213   -0.36495100261437
C         6.48664796588438    6.74546876330725    0.82990401697538
H         5.47389085031438    6.94229738162659    0.51080032250582
C         6.73441098375528    5.72504409153803    1.72505339306471
H         5.91466649709678    5.11276244807697    2.07982536700988

