51
CSD_code = PAXPIO | q = 0 | S = 0 | Stoichiometry = C14H34N2Zn | MND = 4
Zn        4.11501637938735    2.68153808873409   11.94849234199526
N         5.32806021910292    0.85008795837830   10.87654814061461
N         3.48419320246169    0.75042336427359   13.30907066636362
C         5.49435561325720    3.68290430823972   13.15840266483254
H         6.10323300983803    2.98658366952406   13.74273645215755
H         6.20886610146763    4.24262183433093   12.54649844591436
C         2.52760682907073    3.03206531399905   10.63411869363892
H         2.16939889754226    2.10647686123663   10.17368150532853
H         1.66384545918889    3.43636529688446   11.17140897611765
C         4.86921342500015    4.67891616394133   14.14008413798883
H         5.63703642366885    5.19427203786007   14.72574310378702
H         4.20189950498068    4.18080762829082   14.84309770045557
H         4.29236626758697    5.43699127212332   13.61245219057578
C         2.84881046956457    4.01198023607716    9.50136732959995
H         1.97665322962617    4.17860265674157    8.86125451819758
H         3.65280388997288    3.63919025351256    8.86711514006203
H         3.15703807896976    4.97844128843894    9.89730681599972
C         6.81713007193365    2.51139620674624    9.76929493814550
H         7.81088986226371    2.94416296094045    9.85539501469877
H         6.08361304428186    3.26696630447104   10.04426986928125
H         6.66162818444481    2.22626860385331    8.73230569458702
C         6.70522029938892    1.32222890557427   10.71266840863572
H         7.36568720716633    0.51024373685046   10.37036168793257
H         7.04998518942519    1.64095971958009   11.69865670494165
C         5.45788235169885   -0.57715936882504    8.76252081028637
H         4.85290518380154   -0.81935846047792    7.89234625544577
H         5.63088141750161   -1.49737029148382    9.31605672958526
H         6.41441249743316   -0.19886122586683    8.41211864400104
C         4.71252267886025    0.46286887139841    9.60480900388815
H         4.58148230486819    1.37000383320312    9.01545610184293
H         3.71487792603853    0.08257131601773    9.82560869635141
C         5.27315678407361   -0.22127562482985   11.86718311822886
H         5.98799737333294    0.01873932522475   12.65562521158716
H         5.57550693213833   -1.18766845931072   11.43742414752114
C         3.88633372832399   -0.39056561483971   12.49131634863512
H         3.15111150292850   -0.50326849057128   11.69322583999402
H         3.88360041563479   -1.32597613344726   13.07008615526502
C         2.02487708919531    0.80443850525487   13.42696125800373
H         1.63025350887935   -0.10840747076231   13.89989921307618
H         1.62700245102090    0.85415770170166   12.41116538939380
C         1.53527674373569    2.03113944208012   14.18330462749174
H         0.46009238114289    2.12661347061073   14.05252589543850
H         2.01486707133916    2.92284911726744   13.78405987235958
H         1.74134159787765    1.96371678816492   15.24810461829968
C         4.15332108019340    0.76202265122733   14.61229387405677
H         3.99227602015281    1.74507183601513   15.05399405592593
H         5.22445036722191    0.66807950047788   14.43173998557279
C         3.72984620236034   -0.31330759244678   15.61782307611545
H         4.35786614492953   -0.23111152360863   16.50136521863908
H         3.85127684931989   -1.31570499158743   15.21337856647831
H         2.69583053640616   -0.18803178118974   15.92757614466596

