86
CSD_code = PAXVAL | q = 0 | S = 0 | Stoichiometry = C19H56N5PSi4Zn | MND = 3
Zn        0.85409188289583    7.09217076018486    7.58678777442503
P         1.20500458848556    4.82502602561149   10.06014654892455
Si       -0.71627311783324    9.65558999915864    7.81634483628565
Si        2.17686919252105    9.82887986664423    8.72743154890433
Si       -0.32807081708149    5.48988869932846    5.12784003604927
Si        2.34087120684129    6.81511430010717    4.81357930787935
N         1.03396725153658    6.29397876142180    5.81296451433160
N         0.80089822655118    8.93532071938354    8.21468205187756
N         0.47804942284500    3.48630905484463   10.79409533317261
N         2.45710367413701    4.04875654353956    9.25783738899213
N         1.95423945057257    5.83801776096181   11.15534579553782
H        -0.41211879839621    4.93786820870652    8.44811262339683
H        -0.63392951670055    6.23636037601502    9.63463295943251
C         0.09774608902383    5.70527155962347    9.03134567458691
C        -1.15217079014884    9.37513429002695    5.97523381050735
H        -0.78034185472736   10.18699144707987    5.35795051565543
H        -2.22458587264502    9.31037664891878    5.81916148674145
H        -0.70403667876640    8.45557545879546    5.61238692303198
C        -0.84904325918344   11.53177730639073    8.12510151900659
H        -0.86894340610320   11.76122786156823    9.18338813474375
H        -1.76215341917360   11.92208975609670    7.68710691782749
H        -0.01716168728056   12.06744081066247    7.68435437288905
C        -2.08533174181961    8.87336999576104    8.91697239944614
H        -1.82063337309005    8.92691621967413    9.96877864300049
H        -2.26144876494171    7.83088181011607    8.67123780123080
H        -3.02620557487637    9.39910974467363    8.78977635344018
C         3.51789413869345    8.60666342209103    9.34803189091741
H         3.14553765877765    7.58832014959981    9.31955956833390
H         3.81881037977008    8.82480388440347   10.36754145723624
H         4.41158698652288    8.65478514323595    8.73594651941520
C         1.80214796244140   10.96515304132125   10.22404252846532
H         1.40957203769614   11.92021356950061    9.89770443064731
H         2.69883885487689   11.16494681702373   10.80303145794001
H         1.06902457898086   10.51970914810306   10.88846701897046
C         2.95576887881525   10.90075131913154    7.34678607764435
H         2.25173148473845   11.64675881540787    6.99319379171196
H         3.24104125133612   10.29284364879606    6.49399841977238
H         3.84192641342443   11.42306012355461    7.69550323475334
C        -1.87777330787836    5.69693698909553    6.23419989719187
H        -2.75467607203779    5.90097336686340    5.62916408728833
H        -1.75786561965236    6.52755151498880    6.92314082533863
H        -2.09087433196761    4.80259320907602    6.81136562624771
C        -0.02748063087117    3.59953533973792    4.95712904125098
H         0.95499723940498    3.39562598911345    4.54752630319717
H        -0.75928517673999    3.15859762322459    4.28764933808755
H        -0.10354274910752    3.07876620659416    5.90686251065988
C        -0.84692700875211    6.10917728066909    3.39658443896360
H        -1.13594689966846    7.15470398599214    3.41687108607781
H        -1.69239705684566    5.54209605001553    3.01820950167379
H        -0.03734877044914    6.00564647128593    2.68347720756573
C         2.90898587529114    5.45839853175153    3.59162427136429
H         2.11292689966212    5.18132314506218    2.91123949077893
H         3.22529938644471    4.55870191106099    4.10941525364591
H         3.74690384373039    5.80595512864083    2.99612972295040
C         1.96427461370554    8.41028197743272    3.82671958246417
H         1.14104585367440    8.26818416873130    3.13571147694081
H         2.82554575909013    8.73555717232916    3.25023677578437
H         1.69166451060162    9.21578563460343    4.50169874005908
C         3.85420586754516    7.20909746785168    5.91029692599804
H         3.53537510933546    7.67167905508933    6.83834221555618
H         4.51597564341895    7.90621896929891    5.40725710559557
H         4.44049310619314    6.32641194119521    6.14507289451218
C        -0.83040009218260    3.65012565046164   11.39005674432452
H        -1.30960128277471    4.53547490051638   10.97659452408870
H        -0.77348275617448    3.75470137168771   12.47991417830673
H        -1.45064109259281    2.77843732225851   11.16450144413051
C         1.20555096894043    2.34284045160822   11.30323998151459
H         2.18693791069915    2.30127728546552   10.83888860524332
H         0.65949389627381    1.42834325794627   11.05570911681687
H         1.32090695419539    2.38681107066740   12.39173185328885
C         3.59808496571604    4.85449953471848    8.85796543563622
H         3.92516920781618    5.47448388498119    9.68827159060836
H         3.36400930340586    5.49194325933075    7.99837848922267
H         4.41046955043041    4.17945963588377    8.58148534547910
C         1.98198100923055    3.23847609668491    8.14049577342120
H         1.08080436379068    2.70438960109030    8.43666984283053
H         2.75390525843452    2.51096058114872    7.88296657870456
H         1.76658389798923    3.85367357905150    7.26083428122045
C         2.78581121398979    5.23493836292603   12.17876283602651
H         3.19182480623848    4.29560799564072   11.80784091274325
H         2.22952276650528    5.04364595414299   13.10375890770480
H         3.61344849794629    5.90832988628413   12.41432944261000
C         1.34811382442280    7.09915395273130   11.54216248236154
H         0.89982283652572    7.57492517088779   10.67286217442485
H         2.13217256831453    7.75940615270617   11.91345475988615
H         0.59846240001759    6.97534284402848   12.33179871304379

