74
CSD_code = PAXWUJ | q = 0 | S = 0 | Stoichiometry = C32H39AuClP | MND = 2
Au        4.91653273958236    5.93670250600698    2.52224112831086
Cl        5.33429419954936    8.13798025012908    2.11389406691837
P         4.58397438300683    3.73264103116688    2.89159956962872
C         3.51255840879429    3.25163274196957    4.29302652938851
C         3.01693677999651    4.21840262959213    5.17614939188006
C         2.27003832539135    3.81313684540336    6.28031041150097
H         1.90125597596729    4.57051381843314    6.95718454918653
C         1.99144280575348    2.48073874776938    6.51148306453361
H         1.41078563339905    2.18891684212205    7.37362501220097
C         2.45231661913521    1.52477613112850    5.62163620129022
H         2.22909115399796    0.47965758674849    5.77844099769812
C         3.20564574538964    1.90984908534387    4.53036349588122
H         3.55403060117597    1.15268807648552    3.84689006811576
C         3.19511490896996    5.67720386892987    5.00214926062126
C         4.17057442032494    6.36923326719762    5.71170250962202
H         4.85476828111929    5.82342189235422    6.34662282521690
C         4.27007100988400    7.74444765120464    5.59793366041779
H         5.04436899316869    8.27116035857863    6.13530939081248
C         3.38605768061161    8.44335391753873    4.79482353502962
H         3.47325392001586    9.51395647495327    4.69860079828755
C         2.39562421249594    7.76407484222372    4.10653726587660
H         1.70341839259555    8.30595422834461    3.47982721622652
C         2.29800349305545    6.38841429627304    4.20875757272944
H         1.52217252006155    5.85263947819536    3.67817972924084
C         3.80271531508847    2.95339237821592    1.35612715473683
C         2.30979766064479    3.27730629153838    1.48607782225899
H         1.87969454904049    2.74846871192856    2.34116477861437
H         2.19358330630818    4.35291362268296    1.66160333911137
C         1.57203727309938    2.86730327057774    0.21289051331293
H         0.50637693226176    3.09511600594486    0.32676279324060
C         2.13596439308558    3.63409894117785   -0.98081372819882
H         2.00529881924634    4.70759876767644   -0.82955514693120
H         1.60012358220599    3.35481448174647   -1.89041988442689
C         3.62024610611163    3.30836117079106   -1.12764830322048
H         4.03654664441130    3.86702412812215   -1.97250042912568
C         4.35964096007516    3.71599351661612    0.14601439693796
H         4.24272189252123    4.79320142002175    0.30391461761565
H         5.42652186074212    3.51628385550747    0.02760734222705
C         3.99495314273606    1.45778597033976    1.10741552077871
H         5.05567951164816    1.23009601487903    0.97953373625138
H         3.61101630536858    0.86447024063322    1.93735571623021
C         3.24004654096631    1.05128573172835   -0.16331185062846
H         3.37043131952859   -0.02620286280536   -0.31805433725380
C         1.75311115932404    1.36568575700565   -0.00605444405323
H         1.34156268575624    0.81357091816402    0.84253338497620
H         1.21313091733531    1.05254053067569   -0.90192236417574
C         3.79900553808121    1.81055722643513   -1.36348917163707
H         3.27415079890309    1.50924733983200   -2.27228407174600
H         4.85794696168008    1.57610540773936   -1.49594283146352
C         6.24309469509246    2.98958869262382    3.37776810943350
C         6.67329080276954    3.83574959829456    4.58366934761406
H         6.62808570510752    4.89924316412781    4.32386866448159
H         5.98330036642147    3.66367106752457    5.41590771416717
C         8.09476574674083    3.46856350738007    5.00313210787177
H         8.38600564052202    4.08530040114536    5.86030960864883
C         9.04854938745989    3.72802593911500    3.83874572721810
H        10.07160095578524    3.48538472422503    4.13369828983080
H         9.01871498445178    4.78418081294467    3.56315183774079
C         8.63371636770781    2.86933923214053    2.64618383954785
H         9.31590848580545    3.05162898364074    1.80869483339256
C         7.21171815264050    3.23100604963600    2.21918644433093
H         6.92991782063730    2.61591723048117    1.36080129459065
H         7.16561024680005    4.28261587049382    1.91591202722142
C         6.28584321140369    1.51785110157420    3.78653423706155
H         5.62722417883047    1.34500357075673    4.64000009150431
H         5.96902483128038    0.87341592335960    2.96532229018957
C         7.71668953616648    1.14728743662979    4.19406293994570
H         7.73789573008143    0.08631017224002    4.46869262511817
C         8.14329190530689    1.99235648013473    5.39216769434707
H         9.15539137095582    1.71997377446963    5.69835138768574
H         7.47598174030771    1.80651594635913    6.23730447796712
C         8.67665076686718    1.39151086229147    3.03151224220052
H         9.69056343132704    1.11125034735342    3.32406764297669
H         8.39382855992803    0.77349370578636    2.17566172087056

