74
CSD_code = PAXWOD | q = 0 | S = 0 | Stoichiometry = C32H35AuClN4P | MND = 2
Au       -0.37607309016797    0.02831151973647    3.69226940657753
Cl        0.08259265733169   -2.08031675052175    4.42710453609031
P        -0.91800830445660    2.13417269458273    3.11165858097956
N         1.32498703693488    3.13142361863932    4.41421644397933
N         1.95892971333046    4.23074198211155    4.78851804486780
N         2.50642162482613    0.03224381496337    5.70523771286065
N         3.18272779422022    0.06103683453090    4.56503110820468
C         1.26118198566169    5.24989876274297    4.32503320256256
H         1.58428663669912    6.25592347686383    4.50548554361819
C         0.13990865207092    4.80454521889045    3.62921103675883
H        -0.59082537217887    5.41484992793133    3.14071424507854
C         0.19619162104982    3.41603291202930    3.70263837306955
C         2.85657835957319    1.17682140003759    3.93544089602510
C         1.90531957633438    1.88817455037629    4.70927304072996
C         1.70678913748672    1.11680568479060    5.85191548526794
C        -0.90985535080977    2.35029337019826    1.23800841685757
C         0.57770962164216    2.31193844503133    0.87795071677906
H         1.05811272733822    1.43864740410104    1.32268738550815
H         0.70374574070614    2.24963003232001   -0.20128313434728
H         1.09641648193580    3.20308045818572    1.22740184962133
C        -1.54283308094108    3.63315424912870    0.71068691587654
H        -2.61999404016714    3.63609945192984    0.86091398292085
H        -1.10845118917205    4.51066549475968    1.18206670816932
H        -1.35697288998251    3.70412772917192   -0.36044440950736
C        -1.59307474984934    1.13303056497213    0.61388379366617
H        -2.66620292002330    1.13680142715699    0.78339617500774
H        -1.42259947288061    1.13200894140861   -0.46153135351286
H        -1.18161221343089    0.20984520530172    1.02326393533818
C        -2.56154148143684    2.58547243907317    3.91941040190480
C        -2.36079228190424    2.20299069721665    5.38921181958295
H        -1.52880280360928    2.75477008785313    5.82745007173317
H        -3.25701468583144    2.43394427867252    5.96208537365826
H        -2.15451199112611    1.13784850706629    5.49418200598157
C        -3.64435463005875    1.69761737911297    3.30857511005734
H        -3.29211179743165    0.66931679933200    3.21735305362963
H        -4.52470708963939    1.69642745348557    3.94944559439569
H        -3.94499374248915    2.05944590306997    2.32762655269401
C        -2.97790581992338    4.05282088828241    3.85441549051800
H        -2.30497256135200    4.67253348106811    4.44107924713349
H        -3.01315592957406    4.42896462460135    2.83681274434059
H        -3.97540425307501    4.14912151283449    4.28186218723670
C         2.72156374575975   -1.02294038213906    6.60839256517043
C         2.93849701529933   -2.29742993016451    6.10162623734224
H         2.91108002151438   -2.44726159145612    5.03539297024245
C         3.15596354820144   -3.34752324047848    6.97319408084331
H         3.30984361066484   -4.34174005089532    6.58247852566317
C         3.16651321495807   -3.12885084410518    8.34095110423011
H         3.32944801631291   -3.95256482177484    9.01996594953081
C         2.97468765491126   -1.85082829239600    8.83931079013601
H         2.99822560240510   -1.67430350111287    9.90447601169917
C         2.75865470182241   -0.79096412824206    7.97797845367831
H         2.62700863635442    0.20785817273638    8.36595285274997
C         3.43156534510369    1.51797850134657    2.64157781942597
C         3.73634971753043    0.49662605075124    1.74347706031584
H         3.54660035628102   -0.52401176077128    2.03747876083713
C         4.26574332462439    0.79620812680345    0.50344441822181
H         4.49671310696666    0.00037526071650   -0.18941836416367
C         4.50094713067419    2.11471617570132    0.14722942897182
H         4.91289189092943    2.34843511195838   -0.82362663104874
C         4.21851772303592    3.13206794519642    1.04315000383461
H         4.41765790565534    4.15958015408914    0.77442360299956
C         3.68765210572311    2.84003944525081    2.28628974633356
H         3.49772064584186    3.63556609269011    2.99134015473867
C         0.76224663906563    1.33350735685672    6.94021273773612
C        -0.06583418668310    0.29841282006151    7.37347829819206
H         0.00554358865983   -0.67411992102055    6.90978978189303
C        -0.98496253214410    0.52852442557441    8.37902550437852
H        -1.62410898728394   -0.27595714616514    8.71065952840679
C        -1.09017007805736    1.78355890851186    8.95770039525157
H        -1.80780805208490    1.95743304991927    9.74581024056058
C        -0.27443312349287    2.81558359945870    8.52468166764730
H        -0.35445844260718    3.79495871157276    8.97348788209191
C         0.64805774839648    2.59635140720113    7.51749021187624
H         1.29465477998118    3.39565182113182    7.18431991831607

