44
CSD_code = PAXXUK | q = 1 | S = 0 | Stoichiometry = C17H22ClN2ORu(1+) | MND = 9
C         1.86551560043268    2.02710444812648   10.33385070534836
C         3.20141851443399    2.53166153012995   10.42515111502204
H         3.68704308913322    2.55000411636566   11.39607657139054
C         3.92531869089692    2.87711379159207    9.28488632171312
H         4.96874310676289    3.15913589501832    9.36801434864617
C         3.31856512796379    2.83731902110282    8.00048895826424
C         1.98417970148587    2.38149854527826    7.91073364154873
H         1.53264111898447    2.24938713573742    6.93256533657251
C         1.29051099265992    1.93147033012568    9.06215281653329
H         0.31973677545534    1.46535990314767    8.94153725036958
C         1.16539786330278    1.51011111084859   11.56689691592291
H         1.71650092788151    1.86368326548948   12.44442738049854
C        -0.27005175432856    2.02823340177181   11.67312106756802
H        -0.28389081643881    3.11542278568729   11.60109108890487
H        -0.68718018777372    1.74692402495269   12.63573469665536
H        -0.90623196666377    1.60714925528599   10.89792169595607
C         1.20228376250432   -0.02269738688068   11.55408108769154
H         0.65014982712483   -0.41676158681965   10.70387345312211
H         0.75048482045216   -0.40581734370439   12.46444327830021
H         2.22640356785825   -0.38488953937513   11.49964171602869
C         4.11732841987123    3.15538250766602    6.77641374033166
H         4.70567810044922    2.28056118765415    6.49504285077250
H         4.80781362041911    3.97519131025197    6.96406615031329
H         3.47310503973941    3.41426499886762    5.93907951025212
C        -0.83720746785053    4.77020980570778    8.72593936598339
H        -0.97513821661581    3.72158105303241    8.95488919770915
C        -1.92288055477871    5.58825113794228    8.47983151230692
H        -2.91947760257270    5.17940681227447    8.50095072183785
C        -1.70682221482172    6.93850644659642    8.22103359021139
H        -2.53707487594865    7.60206367441762    8.04042993529650
C        -0.41203701510684    7.41660136617718    8.21441429991406
H        -0.21033202580789    8.46080270799801    8.04182490929173
C         0.64228656572068    6.53501437066725    8.46233709048671
C         2.04462307480080    6.88343861050455    8.51665724787538
C         2.59226960470808    8.25238486322077    8.29600523928367
H         2.59640568873626    8.81180860731561    9.23385837733418
H         1.98166156698284    8.79760960709413    7.58202473923944
H         3.61004208394272    8.20065628419909    7.91112057813580
Cl        1.58751121683536    5.26417477026615   11.33925680895649
N         0.41639314811972    5.21676167446042    8.71187565456268
N         2.77490600466839    5.84541612110241    8.80450111383033
O         4.12965803841212    5.95946737499481    8.94563151059110
H         4.34668579172835    6.72050458306601    9.51530169178019
Ru        1.99866324623815    4.17862742063896    9.31282471764779

