44
CSD_code = PAXYOF | q = 1 | S = 0 | Stoichiometry = C16H22ClN3ORh(1+) | MND = 8
C         3.71076085281884   -0.80431902275983    3.57142232624633
C         3.90144212745969   -0.47401915021085    4.94163127637981
C         3.86618099309397    0.97135581261379    5.06557368996638
C         3.62531064951775    1.51802569928425    3.77536615953599
C         3.44885430665930    0.41942955017746    2.85609073676793
C         3.84737647593838   -2.14767500137307    2.94539176335152
H         4.77743197749759   -2.17575808477004    2.37551192359280
H         3.02693978576645   -2.34896937383048    2.25902417978052
H         3.87339050360674   -2.93429505459310    3.69396263260408
C         4.35460533574806   -1.42708172802339    6.00236439549208
H         5.40676765481638   -1.66432136499692    5.83800549157964
H         3.79460218585002   -2.35990595988992    5.96494225322523
H         4.26348750316686   -0.99417520174389    6.99553312048434
C         4.22017717813144    1.73485618270156    6.29822320301351
H         5.30631539228400    1.81073266049001    6.36894834373596
H         3.85939402406642    1.23761502234037    7.19603552238693
H         3.81141790233006    2.74164283704068    6.27369811799725
C         3.64117384802248    2.95869695127322    3.39082200931844
H         3.55879322616371    3.60447244311814    4.26047854505332
H         2.83167567277454    3.19647095281240    2.70304981569119
H         4.58359186379728    3.17944124219173    2.88793328576836
C         3.34473064682756    0.53090281875087    1.36857905605174
H         2.91846661693326    1.48577589859564    1.06999530933430
H         2.74345554085098   -0.27797203843703    0.95795980447442
H         4.34285887679013    0.45684638368670    0.93448676002801
C         0.90164517641054   -0.56076632334322    7.11019060078064
H         1.84172112685220   -1.09408636179389    7.16014939513509
C        -0.03148780876752   -0.68045944294405    8.12589048014799
H         0.17876869207789   -1.30199248990851    8.98092060567506
C        -1.23200735489533    0.00614808401869    8.01651951464912
H        -1.98171225133614   -0.06590758368702    8.78837562734507
C        -1.45693505938874    0.77771479107142    6.88951834097119
H        -2.38834876670928    1.30859834561350    6.77568436948522
C        -0.47335802152535    0.84805926835948    5.90812830707285
C        -0.62729395148159    1.57149338598495    4.64128269581853
N         0.38281191341450    1.42796530187000    3.83492853030996
N        -1.70032851686168    2.30943863960674    4.33827930251586
H        -1.75129047938179    2.70291848885249    3.41069294703843
H        -2.50968461812265    2.35260696350302    4.92929147341560
N         0.69603096924590    0.18936431262358    6.03236408575665
O         0.27140574291056    2.02945824082626    2.58120877746730
H         0.44585395965862    1.33292733801034    1.92483260172994
Rh        1.91591804477399    0.23013653641535    4.34338236691589
Cl        0.52029006223011   -1.42558996953288    3.54363025590903

