42
CSD_code = PAXYEV | q = 1 | S = 0 | Stoichiometry = C16H21ClN2ORh(1+) | MND = 8
C         0.93427576087964    3.04047452429647    1.09048961011741
C         0.81022251721341    3.43485374012154    2.47002720910056
C        -0.40698329365907    4.19662334988633    2.60491927483617
C        -1.08476837017948    4.16873325099538    1.35223172355791
C        -0.26222062886441    3.42743751477834    0.41706710648560
C         2.14948177372437    2.42791896073651    0.49064031280681
H         2.00236987133975    2.19193019184357   -0.55890292381262
H         2.43043569674334    1.51631292390532    1.01577045853720
H         2.97787616116792    3.13138337696820    0.58024687828402
C         1.92721021223329    3.34396915692592    3.45954281368939
H         2.71952697089666    4.03431657426469    3.16698209634059
H         2.35010152228903    2.34109612076564    3.47605072422847
H         1.60367779981691    3.61063234521589    4.46222202965893
C        -0.82271993650409    4.98599963515525    3.79937052761371
H        -0.39933026774161    4.58558301576650    4.71721724361338
H        -1.90530675646990    5.02311313189774    3.90049927325916
H        -0.46202674729312    6.00957187338681    3.68192503693077
C        -2.31667004193029    4.93528005287292    1.00377649917962
H        -2.02776202746871    5.91311812383675    0.61510294311074
H        -2.94611625839289    5.09321511902283    1.87609147695308
H        -2.90397789395970    4.43216686880417    0.23870914813441
C        -0.50388661634299    3.32839350580386   -1.05677395807577
H         0.01778053486275    4.14750052546052   -1.55469282863183
H        -1.56074285203264    3.42013063387486   -1.29959439585227
H        -0.11526221280661    2.39636320234319   -1.46450456162484
C        -1.10996740916440    1.39419729018024    4.98081533502200
H        -0.19913335587656    1.96884759488739    5.08629166204167
C        -1.66191577242710    0.73706733916308    6.06727946208891
H        -1.18902196304634    0.80693068352742    7.03335000708378
C        -2.81996459226524   -0.01046539218731    5.89011688584349
H        -3.26833992345691   -0.53467535998113    6.71914391198020
C        -3.37648008878225   -0.08479108451034    4.62706805188311
H        -4.26147565547293   -0.67016724046180    4.43625181290649
C        -2.76424268279625    0.60107436428974    3.57819746509856
C        -3.21136272164790    0.53379103131233    2.21250134377940
H        -4.08679972645810   -0.03027332167246    1.91377017600751
Cl        0.19211386611911    0.02086248719793    1.93746656060380
N        -1.65271299451713    1.34452856015769    3.76881222740361
N        -2.48053827489810    1.14289743648350    1.34998492512293
O        -2.87332126244787    1.05096879982567    0.04592911324296
H        -2.12003025274115    1.28189906124623   -0.52559420915998
Rh       -0.82719210765355    2.08869003158832    2.04290155060294

