60
CSD_code = PAXYES | q = 0 | S = 0 | Stoichiometry = C23H31ClNNbOSi2 | MND = 13
Nb       -0.74711373797299   10.43613991831423    8.93723722746700
Si       -2.90798453690391   13.66489740584748    9.15629336158797
Si        3.11890831810888    9.87855164924335    8.52498442882861
Cl       -0.07172480042699   11.52032026590897   11.01704290945363
O        -0.06741064137105   11.27884240481531    5.92180533241944
N         0.32516989238021   12.06824740082783    8.11096987894285
C        -0.08549134024970   11.34219402046594    7.12547990686164
C         1.07154820350226   13.24917979218513    8.06720625251713
C         1.25092416531053   14.00974576268675    9.22288393249199
C         1.98442894528421   15.17986621017805    9.17092213235610
C         2.54273159674783   15.60925434372722    7.97752117283239
C         2.35816770732528   14.86049050957818    6.82697002085359
C         1.62739505544655   13.68848435598104    6.86392126557974
C        -2.68926944680938   11.79435240232247    8.96468467729992
C        -2.91697215555042   10.81413916886011    9.97921602094615
C        -3.11777446424288    9.56556369256550    9.37386275183842
C        -3.00522385900923    9.73553754770117    7.97794763417534
C        -2.76104291474067   11.09539978846770    7.72089670313083
C        -2.39913874187192   14.22816231560888   10.90498891832284
C        -4.78394864597216   13.96339139404962    8.90222979789226
C        -1.94695054989086   14.58509156435932    7.78327416978989
C         1.37612649780246    9.19049767137396    8.78528816034980
C         0.82514879502630    8.81136926785055   10.03484537515534
C        -0.38624515749379    8.13033200127158    9.82169957295787
C        -0.58823910059835    8.04408891423215    8.42523989844570
C         0.48238179239844    8.70128053560552    7.78676915299700
C         3.34472554634212   10.29786312620249    6.67699415626089
C         3.41361236200981   11.38502085235334    9.66174350161537
C         4.31501038684880    8.46258415834269    9.00238571705075
H         0.81397262341951   13.67252323694716   10.14840185705773
H         2.11987916023219   15.76239891643324   10.07012375684823
H         3.11521934253539   16.52418127420580    7.94296657695780
H         2.78489698724572   15.19213420818828    5.89173917266101
H         1.47403444793580   13.11368891571117    5.96376992601742
H        -3.04330279615317   11.03518033410473   11.03195104483552
H        -3.40592177674320    8.65216808471148    9.87838208172770
H        -3.20265914029799    8.98402918772477    7.22642499843483
H        -2.78380085349285   11.55777223054445    6.74274319237238
H        -3.18814408385439   14.03686345646659   11.62627706881847
H        -1.50825551439036   13.70890593190219   11.24602524179837
H        -2.19225895981727   15.29333216929626   10.92311462367463
H        -5.38251286472845   13.39971907578764    9.61157969206165
H        -5.02035881030066   15.01383446180355    9.03494902503081
H        -5.10357854906919   13.67802470254361    7.90440871006434
H        -2.55022580718106   15.38225664495736    7.36039292221826
H        -1.03576869930398   15.03179253427816    8.16827036851184
H        -1.66139195067059   13.92232904917742    6.97026729494154
H         1.30369712547302    8.95867496937432   10.99457564650610
H        -0.96868063930145    7.62699523950503   10.58358620984203
H        -1.33907023044373    7.44002942610658    7.93350417924379
H         0.68147620815125    8.68442887169451    6.72380169077145
H         2.48883771260458   10.83130466330445    6.27563609357600
H         4.21911339713254   10.92356471574791    6.52991367203829
H         3.48276204288966    9.40040267060767    6.08095470607705
H         3.61593494478214   12.28409016224924    9.08756536090459
H         2.54431325256755   11.58752208453064   10.28332245683947
H         4.26045462927255   11.22027240362336   10.32107723945340
H         5.34299255836072    8.76550226594664    8.83408322388396
H         4.21850820775234    8.19483630552977   10.05002918788733
H         4.13608886398317    7.56605336603358    8.41655874854186

