72
CSD_code = PAXZUJ | q = 0 | S = 0 | Stoichiometry = C32H37NNbP | MND = 9
Nb        0.05727136160998    2.56606433204921    3.88738332364948
P         1.54917847099402    1.00162171487349    2.47302040385421
N        -1.33953583725883    1.92350996088056    2.96707778187460
C         0.95357673012909    4.11373548911542    2.58514537885529
C         2.00733524781114    4.49047471324479    1.67958505185349
C         1.80030772286730    4.55369222294149    0.29607109099555
C         2.83910430066965    4.87666285069492   -0.55493218687603
C         4.10401967630302    5.14491865392125   -0.05480838857428
C         4.32107861473725    5.09575346282975    1.31336178490738
C         3.28929466993306    4.77035892532694    2.17138827302790
C         0.00309517278368    4.63915416039132    3.30718560401607
C        -0.50492434496930    5.96901946320901    3.55959046511142
C        -1.59786641725333    6.16285254282411    4.40842397958884
C        -2.07489420562686    7.43408232563636    4.66255486532350
C        -1.47187855079716    8.53475651279266    4.07478456979048
C        -0.38941204499410    8.35570669598255    3.22734444991278
C         0.09193340371781    7.08741224784046    2.96903645894187
C        -2.32899992070836    1.19694637383784    2.42309233304958
C        -3.24674945948066    1.64327590656657    1.43005320506553
C        -4.16729923641843    0.72913464809431    0.94127820387349
C        -4.23703077900809   -0.58074168017084    1.38874803504385
C        -3.37137983992864   -1.01185755905480    2.37912561526238
C        -2.44090264073512   -0.13397237886052    2.88296880621631
C        -3.22684982470142    3.08699839998663    0.94929978108654
C        -1.86473767372360    3.39478759721045    0.31419791002339
C        -3.45747640559055    4.00600229568555    2.15576535687139
C        -4.31107749499080    3.39139740688257   -0.09088599078681
C         0.33850119483528    3.52987038568651    6.10944392208499
C         1.63608944594802    3.10769966890649    5.77108436991489
C         1.62563446312230    1.71490337992183    5.65320895250131
C         0.31431683036466    1.25747311718299    5.90610307098874
C        -0.48448282301742    2.38223716553875    6.20165387395411
C         1.05133352133832    0.94547275812126    0.71380963646517
C         1.43442071034144   -0.78328896163333    2.89466845987381
C         3.36727440167435    1.21809804463739    2.31732232029295
H         0.81134016708798    4.35820436544901   -0.09260784759799
H         2.66129397516328    4.92492367496716   -1.61997185826034
H         4.91279563368165    5.39772736314940   -0.72406043436381
H         5.30197647445288    5.31388374069243    1.71235669956154
H         3.46209145732843    4.73681861802347    3.23961892944898
H        -2.07125394751845    5.29855322446285    4.86030727056866
H        -2.92124007155843    7.57128130205605    5.32084712779809
H        -1.84493172628604    9.52871171772818    4.27485780222436
H         0.08100105660528    9.21291978915820    2.76650499385168
H         0.93525966813760    6.94340727948228    2.30858844704306
H        -4.86968416726546    1.03234702079372    0.18208848177679
H        -4.97221194844944   -1.25359132060150    0.97296549920221
H        -3.42620897999997   -2.02429844015876    2.75417173482271
H        -1.75754719880722   -0.43476915341303    3.67008292621960
H        -1.06886872559522    3.24515819673963    1.04485650303405
H        -1.84367413897251    4.42928734069461   -0.02253973052517
H        -1.69765158529285    2.74514685531541   -0.54366903789870
H        -2.70102035589310    3.81683757766938    2.91680336289466
H        -4.44322463258434    3.82454151872589    2.57922157085940
H        -3.39333522955542    5.04876266573898    1.85307914694846
H        -4.17518702790710    2.79628070393826   -0.99100324634115
H        -4.24694155637307    4.44096615085858   -0.37018733872011
H        -5.30570727103393    3.21248405178488    0.30996971388294
H         0.05869411778216    4.53557997628008    6.39888058185143
H         2.50927271860082    3.74562521912639    5.70722622401245
H         2.49408331779232    1.08358527614398    5.49753648538662
H         0.01461103189791    0.22169864322277    6.02392633978290
H        -1.49976823701835    2.35561528484702    6.58532526538761
H         1.24833900429306    1.91604440682843    0.26135892007568
H        -0.01977218897786    0.74899938203322    0.67424695084311
H         1.60089005091871    0.16723344384934    0.18352027465820
H         1.76967118531588   -0.95406313579438    3.91650446429351
H         2.04330500580800   -1.37526102970701    2.21088741365674
H         0.39055360004944   -1.08205038436622    2.80723261680698
H         3.83949091391633    1.14557092989800    3.29558970206370
H         3.57340011465063    2.20258541203524    1.89957896455380
H         3.77619105566103    0.44923948927412    1.66195431219435

