37
CSD_code = PAXZOD | q = 0 | S = 0 | Stoichiometry = C15H18Cl2NNb | MND = 8
Nb        5.91711801892954    2.34951851853978    5.56467743790117
Cl        5.21514414627197    0.61964771210055    4.22387464458279
N         4.67408701626996    2.35155537500829    6.83517074489335
C         3.93811602378877    2.35003952504502    7.96355516242496
C         4.68563100879527    2.35003591487210    9.15858570649936
C         4.08181126355581    2.34993231197727   10.39410528041683
C         2.69912287473651    2.34987434592345   10.46756119923627
C         1.94853476562727    2.34989840295717    9.30428966522848
C         2.52098143506726    2.34995093832128    8.03916073865008
C         1.66556772623096    2.35000975553364    6.78119653960461
C         0.16185605989705    2.35001020821717    7.08219546808212
C         1.97659797049417    1.08982791108358    5.96299021540943
C         8.24067297513565    2.34997142818230    4.51644030002157
C         8.14100271690542    1.21220061999012    5.33095838083994
C         7.95024022505441    1.63701997616867    6.66796023597153
H         5.76551869314768    2.35024013627395    9.05988583803123
H         4.68080695322158    2.34998035112492   11.29244467040400
H         2.20309823203490    2.34984907895474   11.42622758048212
H         0.87604399069612    2.34989396381606    9.40277581084158
H        -0.13096534608685    1.46272390941452    7.63808605008936
H        -0.38556257369888    2.35001834655113    6.14229550664495
H         3.02827356518032    1.05603325509390    5.68313676201450
H         1.74271644822947    0.20046400122867    6.54459189745216
H         1.37522427571396    1.07836039164160    5.05671616706140
H         8.43606371244508    2.34995863482729    3.45343999053310
H         8.27677717219082    0.18609826259859    5.01319146685625
H         8.02318404781607    1.00638783371273    7.54654604157185
Cl        5.21542157110614    4.07969599363528    4.22479382911236
H        -0.13096293376031    3.23728651594664    7.63810304201474
C         1.97660495482136    3.61020521774217    5.96301389213471
H         3.02828144461870    3.64399481643393    5.68315284061756
H         1.74273047443228    4.49956721935178    6.54462157068122
H         1.37522797770914    3.62168185732513    5.05674339648775
C         8.14069433277766    3.48773549744442    5.33081128527413
C         7.95010614235553    3.06292768932355    6.66788450280947
H         8.02299637742229    3.69357556995872    7.54643592489813
H         8.27633626086694    4.51382851368010    5.01298021422511

