46
CSD_code = PAYBAS | q = 0 | S = 0 | Stoichiometry = C18H17FeNO8S | MND = 7
Fe       18.20530799152043    1.85886514092320    2.42852340187556
S        21.12763495867574    0.21714100584451    2.56018492156822
N        19.07895547074423   -1.63854429503643    3.63973394992579
O        18.06669005181364   -3.62258475861214    3.24905365002770
O        19.27725217158707   -3.28102125344851    5.13082604587327
O        21.17542076153230    0.23123014525111    4.00514265513426
O        21.77238068678013    1.29747863574610    1.85961156602415
O        16.66351878860980   -1.95237672206443    1.32855088955968
O        17.65016406779914    1.02153533011275    5.16838870250277
O        16.47576946263612    4.19013221847361    2.29993407014887
O        20.36466908936379    3.66615931022903    3.15064375803107
C        18.73639615514022   -1.12610634838320    2.32977369638789
C        19.38952741353473    0.21051060554395    2.08191405031139
C        19.10159226564212    0.83298406030452    0.81336369583697
C        17.73340556254831    0.90619532981694    0.54064575052134
C        16.89344708680125    0.40644878953699    1.58149289015022
C        17.20138455899573   -0.96553579809044    2.16902072181567
C        18.75350729631889   -2.90985567431566    3.94958856665921
C        18.93835782026754   -4.59032088496527    5.56443970352888
C        21.78079599488201   -1.35469517681702    1.98511971876395
C        22.09121410902263   -2.35175873909762    2.88855352910320
C        22.52649368430135   -3.57954352138884    2.41993752465607
C        22.64899165805855   -3.81658294017318    1.05569790227241
C        22.33706808497377   -2.79281364107907    0.16356270028553
C        21.90221943048632   -1.56443900604943    0.62349716324033
C        23.10245257120210   -5.14560892143402    0.53854634677481
C        17.84055666622197    1.34658159579954    4.09440188962500
C        17.15298531082561    3.26893518982284    2.31416910496121
C        19.55642743588685    2.94220810997226    2.81243368326199
H        19.71549064304543   -1.10730424555617    4.22261713744328
H        16.87320117876025   -2.80999547313854    1.73486354102306
H        19.07112555120109   -1.85909022661934    1.57360938189665
H        19.87635812150437    1.21066155400395    0.15928609916841
H        17.34460015423481    1.39198508334635   -0.34553179321716
H        15.82443094057817    0.53521139380396    1.43698793857239
H        16.74000135221742   -1.03808915606616    3.16653908775081
H        19.46819739346661   -4.74112946042082    6.50124845972410
H        17.86070359323902   -4.67549870173846    5.71783365709034
H        19.24769148604836   -5.33028915760316    4.82343215440049
H        21.99899711059808   -2.15296831193293    3.94468449030869
H        22.77231782283043   -4.36148864253599    3.12311202109586
H        22.43590652729424   -2.96538326815511   -0.89799548767046
H        21.66885489230049   -0.76242216692576   -0.05892428065472
H        23.42727605456284   -5.79173994642719    1.34926641620626
H        22.28748179417815   -5.63781363965475    0.00884867549504
H        23.92507877776964   -5.02036342080469   -0.16302974745841

