42
CSD_code = PAYCUN | q = 0 | S = 0 | Stoichiometry = C21H12ClN4O3Re | MND = 6
Re        3.41956721881582   12.98150752761044    2.94002992290825
Cl        1.39570675019979   12.27204341340396    1.91505064587865
N         2.70970514792843   11.53728467108664    4.42105488802353
N         0.80202997102796    9.73371346814421    5.32525844141213
N         4.12814666017504   11.10299735568977    2.22334118739635
N         1.24852516421867    8.47646024944573    2.05497762769255
C         3.86602194591568   13.99005571408017    1.33304260876329
C         2.41450360291551   14.50911142127534    3.62579530376273
C         5.08041365372379   13.40256076147446    3.85330805934057
O         4.07145768453233   14.50825661457656    0.33486259115314
O         1.71035514938095   15.33929119939763    3.97539489505413
O         6.06170380918841   13.62588632791335    4.41044506454095
C         2.52413774495406   10.36940569395221    3.80925720850085
C         1.45237560029044    9.51183732930489    4.20939002000430
C         0.49788074137253   11.00704655436925    7.31246855103030
C         0.75330876924499   12.14577012317410    8.02594583280246
C         1.64782270702955   13.11034201389280    7.53447653327049
C         2.28327184666535   12.93516090203222    6.33484826307562
C         2.04612979705542   11.77289855349453    5.57695303894503
C         1.13046041309526   10.79930097697707    6.07243195374203
C         3.50979075748646   10.04811335088149    2.77696403801340
C         5.05000707442602   10.88386708797148    1.28910655217687
C         5.42456289654189    9.61676946527397    0.88660740196230
C         4.85116976883068    8.52002170698893    1.51728781374368
C         3.88989812541093    8.73869789124748    2.48286866382791
C         0.89340822258252    8.46901310754752    3.33703044574867
C         0.68409119785125    7.61360084541174    1.23690713353735
C        -0.25986109064897    6.67966328405317    1.64345272363337
C        -0.62326032497291    6.65852675452243    2.98127394355160
C        -0.04396603844768    7.56921848537782    3.84660616094613
H        -0.18625466080920   10.25161098327205    7.66514104171301
H         0.26558014167452   12.31178070717378    8.97458694718489
H         1.83981189914212   13.99865638876456    8.11656394045955
H         2.99454886263354   13.66040560747333    5.96261818349047
H         5.50918943834403   11.76226712586805    0.85383120137370
H         6.16460803164377    9.49300126473577    0.11254725379046
H         5.15314054312952    7.51565525764480    1.26293455635996
H         3.44818759871510    7.91507151276437    3.01861008306230
H         1.00679880016293    7.67623168573012    0.20576486522018
H        -0.69462495508779    5.99341685893859    0.93382637093658
H        -1.35139487073066    5.94694125657815    3.34298351025157
H        -0.29975579559589    7.60763850047687    4.89275453172109

