43
CSD_code = PAYDUQ | q = 0 | S = 0 | Stoichiometry = C16H16Cl2N4NiO4 | MND = 6
Ni        3.39006446588160    9.37041517854654   -0.00060812341590
Cl        2.34181270857750    8.31104076843168    1.54864345853023
O         4.03148126837372   12.32159874180042    1.11482326369202
N         0.31130382042439   11.93932931342713   -0.19251561742816
H        -0.65886349490423   11.79273849765706   -0.43490446359248
C         1.10283114375716   10.88648739480693    0.05390407352955
H         0.64879393903908    9.90472555546731   -0.00620384274756
N         2.35831727208362   10.96960705993968    0.35788118875237
C         2.95182035684196   12.21915212539483    0.56756492914354
C         2.16551141169854   13.38453723599913    0.14127651103841
C         2.73076790016906   14.65985329515051    0.11484153916697
H         3.76551464034408   14.76434907098485    0.40144412898022
C         1.97221571704138   15.74187811684244   -0.27407061205366
H         2.40834012838590   16.72836472479647   -0.29739981878392
C         0.63886176984704   15.56838296286467   -0.63722791880308
H         0.05044381297896   16.42151279302730   -0.93912406399814
C         0.06173477569589   14.31638213538548   -0.61803688304695
H        -0.97036894620713   14.17636009885890   -0.90388312413097
C         0.82692824597192   13.21749327740586   -0.23281241894770
O         1.74040544572758    8.88307728187991   -1.81921347165758
H         2.35164711567761    9.12109743518004   -2.52639940894530
H         1.86007709505539    7.92622778575143   -1.66569661765680
Cl        4.43803729988695   10.43038719601456   -1.54974800986747
O         2.74874695592821    6.41892714831080   -1.11580319846016
N         6.46858794748571    6.80169761787968    0.19243136782373
H         7.43866264338072    6.94838527488888    0.43512690932164
C         5.67721209174919    7.85442454168504   -0.05491168725495
H         6.13130114856117    8.83618734104431    0.00468759162296
N         4.42179090527160    7.77119858574346   -0.35912767323458
C         3.82824590602849    6.52158577828203   -0.56824041667880
C         4.61442504208693    5.35639195989817   -0.14121748665557
C         4.04915462076877    4.08109331292153   -0.11439757456883
H         3.01451041937246    3.97647099798830   -0.40132227789865
C         4.80755512987797    2.99924740551741    0.27534414916428
H         4.37142799423472    2.01276855849058    0.29895653000962
C         6.14076293757370    3.17290855072554    0.63897029313039
H         6.72906424283964    2.31992551999479    0.94150218515044
C         6.71790618798174    4.42489438950951    0.61938920517855
H         7.74990008316689    4.56505742819624    0.90556503686115
C         5.95287652634234    5.52359229634115    0.23328383723984
O         5.04034011403238    9.85765391150001    1.81774300193354
H         4.42927033684650    9.61952792805170    2.52512171259586
H         4.92058087412389   10.81456340741260    1.66436379696204

