70
CSD_code = PAYFIF | q = 1 | S = 0 | Stoichiometry = C29H35ClN2OPRu(1+) | MND = 9
Ru        0.33873614869168   -0.82359115531352   10.25915212723688
Cl       -1.55074360232086   -0.75073799772964    8.86395127363161
P         0.35133955968136    1.37728317673415    9.63501901371295
C         1.11851532311941    1.62908965770231    8.01805625982158
C         0.38791117122368    1.27855665411667    6.88585528910557
H        -0.61568014289486    0.89307609468026    6.99782574145036
C         0.95004451632615    1.43217400070511    5.63153555372962
H         0.38208900563151    1.16720347802592    4.75298231840542
C         2.23826442818895    1.92828701662338    5.50303206492865
H         2.67535959144477    2.04779557038148    4.52357356010146
C         2.96575014692637    2.27576705834304    6.63037125907268
H         3.96720302353615    2.66635710775219    6.52916602474273
C         2.41179822857239    2.12539540239476    7.88937637668150
H         2.97075006330697    2.40487611919910    8.76963851264773
C        -1.11027047638838    2.47020724660575    9.61066949280448
C        -2.35493544124955    2.09977232650657   10.10014742100169
H        -2.51595353618162    1.09358256039614   10.45719630553923
C        -3.39412914014648    3.01495746543962   10.08856954623718
H        -4.36475981295207    2.72498784433471   10.46051748614176
C        -3.19291733111599    4.29306020314112    9.59441632677553
H        -4.00784285470836    5.00030042265920    9.58048607615391
C        -1.94751177489099    4.66491749490630    9.11066012124318
H        -1.79114897603103    5.65948002950751    8.72178372134426
C        -0.90468363988144    3.75823176780504    9.11974361299559
H         0.07073322410491    4.03643188668964    8.74367635309004
O         1.38685626513177    2.24999396074138   10.53685872745415
C         1.03904443314386    2.60653442004963   11.86012596962845
H         0.12939246643249    3.21924527393651   11.85683617964837
H         1.87521312725608    3.20682607521070   12.22840152938799
C         0.84442319593570    1.38483113782397   12.76820865212560
H         1.55795593640517    0.61336524281587   12.46100812089267
H         1.04948380311614    1.67132221675017   13.80188375344594
N        -0.47778040316701    0.81843369280383   12.71380001868165
N        -0.78646082889097   -0.24966996044460   11.93801036403053
C        -2.00765747701243   -0.64948892411542   12.28963568912446
C        -2.49019711960837    0.18034890480777   13.30983262929261
H        -3.44096597334220    0.10541293616171   13.79432879218007
C        -1.49691674010806    1.10007765711113   13.56113819493603
C        -2.69286211669541   -1.81562691687392   11.68342115665425
H        -2.03401869510419   -2.31044660630280   10.97197916832080
H        -3.58655410132496   -1.49463594934363   11.15106081769705
H        -2.99567095789340   -2.51457020715217   12.46118323559954
C        -1.45190906103759    2.20058938677083   14.55211286974073
H        -1.21525747008383    3.15009386389908   14.07582750893101
H        -0.70150035427870    2.00656547020261   15.31877374648469
H        -2.41879913054265    2.28465522865521   15.03872639788954
C         3.75722267041803   -0.30850370493114   11.00395943872038
H         3.63989499812166    0.71395854047104   10.64714464093864
H         4.68419133180800   -0.69973998708395   10.58339477467502
H         3.85470795419368   -0.29982419020169   12.08776835183246
C         2.61386291174696   -1.16923726581247   10.55867635990925
C         2.27503398191157   -1.24905980823784    9.18022839482455
H         2.82831739530423   -0.65023685771621    8.46310138707502
C         1.31017675731074   -2.15719235504732    8.72933009567354
H         1.10635122390270   -2.22800335971970    7.66545774109509
C         0.70188360085910   -3.09936012467390    9.61464879795199
C         0.98274258205465   -2.97511906281139   10.97570022897627
H         0.56657367227084   -3.67417418846876   11.69012500525886
C         1.89664770875944   -1.98845898840193   11.44835590449859
H         2.15670489834078   -1.98967366949536   12.50378236135456
C        -0.14056643381598   -4.20293290649034    9.02188675599186
H        -0.87411105166222   -3.73677516710072    8.35174481420003
C         0.77350973313108   -5.11161092399380    8.18667369014367
H         0.18322411636906   -5.90340886249675    7.73397489676216
H         1.53189707559814   -5.56811352788465    8.82031584991054
H         1.27214966779172   -4.56258698006011    7.39188260351805
C        -0.88997396711822   -5.04685898970970   10.05003951310612
H        -1.51605373032349   -5.76701067040712    9.53011082479033
H        -1.53631233725004   -4.43854631540441   10.67781926537108
H        -0.19741126004356   -5.60174896943205   10.68012294269363

