81
CSD_code = PAYGIH | q = 0 | S = 0 | Stoichiometry = C30H46O3PRh | MND = 4
Rh       13.59233245785331    4.83040749577188    9.71039797530115
P        12.81624104715880    6.27649311981597    8.09652806624638
O        11.09949938361391    3.39974782559622   10.44167856361255
O        15.44108562788576    5.62577877737041    9.44412339407230
O        14.47511901656815    3.51347882677755   11.07267956075644
C        12.00876170700479    4.00623348010062   10.07762928414668
C        13.74685152651433    5.78895165175754    6.53517136998203
H        13.15858390434099    5.99665145908657    5.63416836764286
C        15.08513376920181    6.52254127912440    6.46331452735951
H        14.93169553274362    7.60198663411840    6.44654263824551
H        15.65179462869575    6.28742414585429    7.36429760845009
C        15.87684682754929    6.08567669930938    5.23447650676569
H        16.82731691967691    6.62313296861067    5.19799209116523
H        15.31755963074967    6.33565150369928    4.32842701244191
C        16.12842280420922    4.58213448095789    5.27378499548598
H        16.73277376089882    4.34062843786905    6.15093183851851
H        16.68341259792240    4.26936133293039    4.38652822430460
C        14.80286500918419    3.83274796956251    5.35463777550170
H        14.22118058326372    4.02798722488599    4.44923481460534
H        14.98396713721156    2.75725223162057    5.40736807347933
C        14.00699684644132    4.27875777352966    6.57873693279724
H        14.57506724616484    4.03702539815508    7.48987937299025
H        13.06505180809138    3.72854243089742    6.62217171707759
C        13.07283217459217    8.11270433405763    8.31653703813450
C        13.41899363064776    8.60182727027736    9.59526147881782
C        13.33821300005851    7.81361077646069   10.88456767516602
H        13.13034537701241    6.74875861280060   10.66515403366225
C        14.64874148930752    7.86616377979072   11.67762030001341
H        15.49276149958791    7.66073897834947   11.02518572370088
H        14.62963291121470    7.11379786231155   12.46375073970330
H        14.80252455598445    8.83676550095293   12.14464165975672
C        12.18227180369863    8.33522690663836   11.74369132734940
H        12.34042710060299    9.37446906658609   12.02573403636420
H        12.10318574770717    7.74099047891400   12.65098038975438
H        11.23942479470966    8.26723215558364   11.20708898621363
C        13.79634585773093    9.93330922093456    9.74559431071376
H        14.07500096035953   10.29502110916461   10.72266492744941
C        13.81624057766360   10.80589101526449    8.68142176440967
H        14.13047209103063   11.83079836479481    8.81344920585055
C        13.38043327978706   10.35863711026474    7.45282840023996
H        13.32990882392124   11.05553242679578    6.63106841334485
C        12.99797607046045    9.03844206021310    7.25104551647954
C        12.40253702268725    8.74008637586797    5.89067381868644
H        12.26743648358480    7.66727653414695    5.78600019462462
C        13.26519907940653    9.20704206724782    4.71406996799998
H        13.29255959849465   10.29086327706669    4.63971758473083
H        12.84785600986488    8.82348117690504    3.78486968558060
H        14.28585595564941    8.84543028225862    4.80399791848474
C        11.02254318604281    9.40673426434176    5.80785016514524
H        10.39917776654004    9.11906448076355    6.65189243855846
H        10.51943306046620    9.11823124938929    4.88674304286405
H        11.11877884078950   10.48974200371149    5.81986648927811
C        10.99999872412948    6.21344083757253    7.64637693767733
H        10.78671932939749    6.92689562908754    6.84865479009935
C        10.21731307254700    6.64566515941307    8.88592277933913
H        10.49173888303877    7.67408888589972    9.13724252233538
H        10.49571778138607    6.00792554171016    9.72897890654263
C         8.71204643240206    6.55407976228246    8.65661515034788
H         8.18365981298279    6.83742926392289    9.56897792936805
H         8.41728316724247    7.25280699466408    7.86879157260502
C         8.32840241679303    5.13769897457728    8.24453072811339
H         7.24953918724932    5.07019142341923    8.09117101249391
H         8.60196724839209    4.44235835278490    9.03996288332369
C         9.06276363240933    4.75722100638710    6.96449968390493
H         8.77006782393807    5.44202360803616    6.16384125811406
H         8.78450772869224    3.74690790259970    6.65838498045088
C        10.57514452340338    4.82857489465974    7.16752296170865
H        10.88005116122219    4.07947362999271    7.90078280920118
H        11.07009212133712    4.59818637596875    6.22146836680546
C        16.53439877689425    5.29141411902832    9.98183238789896
C        17.76079767926935    6.07700828180741    9.55604170306556
H        18.37252867795902    5.46550048851454    8.89355975798116
H        18.36143687279203    6.34695961406066   10.42103209515153
H        17.46127481791449    6.97780581322677    9.02390281267203
C        16.71977004697623    4.27072392995261   10.91078458062371
H        17.71744305543384    4.09785635227427   11.28325399790852
C        15.68883999779561    3.45564735224124   11.39454654513722
C        16.06987344232647    2.39716008570729   12.40964697935262
H        15.18449905587831    1.84159459031696   12.70744826440289
H        16.51621251274082    2.86397798881291   13.28509994855701
H        16.79784349488035    1.71322125174719   11.97845771075821

