35
CSD_code = PAYHEE | q = 1 | S = 0 | Stoichiometry = C15H13N3O3Re(1+) | MND = 6
Re       16.05360886887863    3.15362683013645    3.41799796938439
N        14.98566074153221    2.56390269484469    5.20652410574865
C        17.27127581952677    3.72253549626029    1.99433199635977
N        16.91606360608782    4.51327438424512    4.98427443370355
C        14.65763205459306    4.40074959709553    2.84399022654857
N        17.53707769073330    1.90123180181327    4.37448112688380
C        18.29594755015372    2.48868201107597    5.30622018801562
C        17.62391525933126    0.57857128075643    4.22583101821099
H        17.00822389485628    0.13974829337356    3.45245754934083
C        18.45809120971904   -0.21059295384684    4.99526384451170
H        18.49640481730983   -1.27423068498614    4.82863584319083
C        19.15079874552362    1.76630769325326    6.12677869387387
H        19.74520626961492    2.27863571556846    6.86681245282369
C        19.23585081546724    0.39313863215098    5.97205294842158
H        19.89619642397621   -0.18890837377243    6.59483674209093
C        15.22324739863209    3.29122259617599    6.30371933674083
C        14.26297537431490    1.44949328309843    5.32740096642389
H        14.07734677890006    0.89508638075903    4.41751071377557
C        13.75454515637474    1.01147747147915    6.53588721541986
H        13.16962296250735    0.10777174099110    6.57725446604606
C        15.96567137356521    4.58800587276997    6.10600077112217
H        15.21650580787740    5.35461991040697    5.86872822118415
H        16.46332569439685    4.88587859554059    7.03784997243814
O        13.83641857250658    5.14104049900437    2.57344385370254
O        14.88254246008548    0.96373261449159    1.57302265907409
O        18.02868287756294    4.05529712952208    1.21257042649660
C        15.31345947224367    1.78907023415858    2.23282386129611
C        18.23608986439536    3.99324655872772    5.37712482239558
H        18.52319653720192    4.33667973170209    6.37923661622292
H        18.98037726287752    4.37776799022035    4.66774264188756
C        14.75763829063204    2.91475568503156    7.55556974031051
H        14.97203344407211    3.52947369951924    8.41555277241600
C        14.01043267320783    1.75562521188810    7.67789448551036
H        13.63403838672812    1.44491164124465    8.63940437798514
H        17.05659584461607    5.46607073529916    4.64527294044332

