105
CSD_code = PAYJEE | q = 0 | S = 0 | Stoichiometry = C52H47ClP4Ru | MND = 6
Ru       11.96142793541897    9.90829289487846    7.12272102992166
Cl       11.13491408928440   10.24016621362995    9.35150184274260
P        13.53313733285984   10.22683679234919    5.49306872781185
P        13.78246776124351    9.64755707487265    8.44678068858749
P        10.14094054470494   10.47976280612797    5.88838526959115
P        11.37122981144432    7.73324317529339    6.66462339548251
C        15.21097286495431    9.58156718201928    5.99172091507746
C        15.23546827075103    9.06974366193453    7.43150367311796
C        13.50379577342927   11.94528099808422    6.04218883137911
C        12.54353800940877   11.90757794794676    7.07287119467937
C        12.29138432165704   13.08577963761802    7.76038122662109
C        12.97651317318724   14.24442595492308    7.42197320032711
C        13.92980964291270   14.25006666134127    6.41527999781161
C        14.21300573101748   13.08979621335984    5.71272924285930
C        13.70634960960361   10.14738366846189    3.68600759786102
C        13.69576339636076   11.27313513594404    2.87361338713899
C        13.82449910544893   11.13358432361217    1.50281358908274
C        13.94029138168227    9.87619573410415    0.93543636875108
C        13.92518625956232    8.74777447389739    1.74119552664385
C        13.80972641510536    8.88262464443218    3.11034908518590
C        14.42606923691262   11.13611380177267    9.27384332635684
C        15.37394395310288   11.95887233885850    8.67427011131894
C        15.77525532292272   13.12634204017010    9.29599784675932
C        15.23611911403678   13.48473825662427   10.51970808742494
C        14.29917688771867   12.66495849160452   11.12634109823394
C        13.89520224946491   11.49567291735509   10.51036269439076
C        13.88519753619550    8.46587695801771    9.83002804067396
C        15.05406929092858    8.39173292123161   10.58287973171999
C        15.15584448007073    7.47548947219189   11.61237848947874
C        14.09436754290864    6.63179320639888   11.90228758912722
C        12.92659388947280    6.70894938801503   11.16279304858465
C        12.82251311201241    7.62321893461142   10.12918839683601
C         9.28052194249418    8.93135847259082    5.34385056241811
C        10.32743954539863    7.84863093838638    5.13276879228218
C         8.69657986463284   11.44312177889315    6.44513660892968
C         8.55404033037023   11.78679220149017    7.78282178908993
C         7.44130482689351   12.49921330183093    8.19848171756459
C         6.47049676974123   12.86847680707672    7.28452904656865
C         6.60996857665506   12.52519145480547    5.94777896307541
C         7.71750790849401   11.81670447298986    5.52601165787000
C        10.46380344446175   11.37906840480659    4.33574928997201
C        10.72010518420688   12.74331722591963    4.46851643136430
C        10.94664744359275   13.52581956744956    3.35377044149891
C        10.91304374160537   12.95694330077594    2.09008864643979
C        10.67371172090619   11.60100105159345    1.95169399293694
C        10.45793214181000   10.81106498689336    3.06767290373838
C        10.23178839746054    6.73415124366652    7.68340564541163
C        10.17053909498339    5.34605962498807    7.61557041948051
C         9.24627939424881    4.66120047943891    8.38277075364435
C         8.37777963006294    5.35213204869145    9.21315980090459
C         8.43375648389816    6.73441373491853    9.27980697486326
C         9.35910800487175    7.42575145893683    8.51908156132522
C        12.59741481810234    6.47183328913118    6.17307701594855
C        12.75955392282833    5.98121601072652    4.88111366010853
C        13.76448872321827    5.06988683478964    4.60104228266364
C        14.61588467453473    4.63235495982790    5.60067100126527
C        14.45246518824849    5.10329410852437    6.89376535665844
C        13.45379200696956    6.01604325432614    7.17433725022750
H        15.91442920056683   10.40851638628835    5.83371874098194
H        15.48300060258075    8.78120358996792    5.29556187075699
H        15.14159596678953    7.97730235013767    7.42754319826794
H        16.17302379406907    9.32409428066644    7.93458125567063
H        11.57072941103565   13.10717509584457    8.56831199382794
H        12.77084560970923   15.15921875347758    7.96191204997460
H        14.46205905890359   15.16235279922677    6.18270607521248
H        14.97769182866437   13.08324023828483    4.94526470420128
H        13.57567570712078   12.25163666219163    3.31322802619701
H        13.82910279525600   12.01225155556395    0.87431327153747
H        14.03739082165747    9.77264498324357   -0.13548826887756
H        14.00548928582334    7.76483762035131    1.29878695459347
H        13.79786567083994    8.00914197599946    3.75109484736647
H        15.79269958681035   11.69961258729200    7.71278770825804
H        16.50743822177314   13.76196253543024    8.81840616834574
H        15.54602710029180   14.40220255618717   10.99887059472922
H        13.87713215912687   12.93938652871540   12.08225927040175
H        13.15541604030174   10.86160529648755   10.97876169261518
H        15.87601457478591    9.06169619469048   10.36739883754851
H        16.06438972510861    7.42075467040495   12.19499070640002
H        14.17754683671879    5.92006450788544   12.71079348605656
H        12.09264878597209    6.06038924964608   11.38912128947047
H        11.90296639229450    7.70147283013595    9.56167827859422
H         8.67323131440413    9.10739513113876    4.45047979774527
H         8.61070857997112    8.65043348750546    6.16723179526398
H         9.87010150687235    6.87769985606205    4.91085161942322
H        10.99955579764267    8.14255700009802    4.31751493481035
H         9.31471958147820   11.49204899314000    8.49262052772633
H         7.33548951665301   12.76607993907241    9.23985967754775
H         5.60338835445525   13.42610155611822    7.60832866721558
H         5.85237753245630   12.81465184324274    5.23319432784604
H         7.83222289068683   11.55998811777831    4.48100592276504
H        10.72632085336233   13.18263230752498    5.45800342266636
H        11.14127375505613   14.58241369367538    3.46895452468315
H        11.07456547790780   13.56946512751453    1.21497953317761
H        10.65289703221871   11.15249157848260    0.96851158469834
H        10.27659111439418    9.75412315549046    2.93528962005161
H        10.84690001671834    4.80406793335871    6.96863422969892
H         9.20302555405539    3.58235900640710    8.33289987098146
H         7.66015130392354    4.80958968892526    9.81151811978178
H         7.76212735601511    7.27561163232462    9.92974334970287
H         9.43143839435059    8.50586358265152    8.58998861596228
H        12.10044439381857    6.29175916134361    4.08447642499867
H        13.88018408318602    4.69763882055539    3.59270906262330
H        15.39876036086184    3.92339872221793    5.37457619372812
H        15.10466585220590    4.76040926496301    7.68447118074172
H        13.32005237464206    6.38006221712768    8.18445842620729

