52
CSD_code = PAYLIM | q = 1 | S = 0 | Stoichiometry = C20H23N4NiO4(1+) | MND = 4
C        -1.48470145823470   -0.62496399147605    8.25265316287546
H        -0.88431638033597   -0.26196281829791    9.10967341929816
C        -1.77629786885991    0.42170281241717    7.26602028468757
C        -2.50358014114217    0.11750335555521    6.12957236552467
H        -2.83753561795649   -0.90411549192226    6.01356703119139
C        -2.80836991712343    1.07283846957436    5.15551210003098
C        -2.35521965283320    2.35680313822138    5.35582540288471
H        -2.57222249913181    3.12016700150599    4.62276318899318
C        -1.61316801453021    2.72224006881524    6.49705517611490
C        -1.30406794627629    1.74715728670946    7.49419270615122
C        -1.15765448980268    4.05772290926511    6.63817867124899
H        -1.39426116201528    4.73552410423009    5.81878600179453
C        -0.07455587720196    5.92268243498281    7.67113076949348
H        -0.85386858641661    6.51171193084423    8.17128787924895
H         0.05859437428737    6.31692552591714    6.65851561263416
C         1.23016175141658    5.99742969733222    8.46800808478624
H         2.04156914837001    5.56251737884327    7.87686222076261
H         1.48999698335879    7.03274100917406    8.71250741009145
C         2.27019511513212    4.74676514754408   10.35632694430409
H         2.78350797027421    5.58700992327335   10.83775205850271
H         2.94532554727147    4.31020033460666    9.61351890684840
C         1.86986773372551    3.68874035531410   11.38450734616902
H         2.75543342002578    3.22883154740385   11.83547660055511
H         1.28297245730580    4.15797825968734   12.17967951120124
C         0.17822162540068    1.94379579932375   11.68411117251608
H        -0.33893377511124    1.14825665569786   11.13872855032712
H         0.80526428278290    1.48805652359371   12.45979694289183
C        -0.84755690115961    2.84868135377257   12.31660371092604
C        -0.97000737752182    2.94140109622512   13.69879317825504
H        -0.33621024872825    2.34583444809991   14.33774440816766
C        -1.90585602011481    3.78870741177968   14.26471418191283
H        -2.01756028615383    3.87088535686778   15.33499251649837
C        -2.71107030611052    4.55652634373401   13.43655181133584
C        -2.61189957421881    4.46985442121860   12.05346222553988
H        -3.27099243352023    5.06651626982968   11.44136049743230
C        -1.68387943624847    3.61041170892291   11.50152878375773
H        -1.63143712257873    3.50453040293388   10.40845629394376
C        -3.59386686351752    0.68669354998842    3.94481852965179
H        -3.82493685621660    1.55349866255350    3.33250767801364
H        -4.52420951183521    0.20362099772358    4.23632268171650
H        -3.02923813137155   -0.02381255316684    3.34303275338303
N        -0.48867292726702    4.52121319397699    7.64328525958371
N         1.04042176892553    5.17044853648422    9.67100366372950
H         0.46781777397613    5.69741463200942   10.33647813913495
N         1.00976786668223    2.68660827718321   10.71907310434424
H         1.60925058565345    2.00340709222847   10.24627525271941
N        -3.67324743925222    5.47532052263263   14.01869307756807
Ni        0.09045940948736    3.57259500965235    9.12728420482868
O        -0.63022520932647    2.00362936061365    8.56477229814053
O        -1.84011988317939   -1.76983468907349    8.17377907255871
O        -3.80335801648553    5.45373152638815   15.21804601710081
O        -4.26282988227008    6.20475769927408   13.25461113864391

