33
CSD_code = PAYMUA | q = 0 | S = 0 | Stoichiometry = C13H15AuClNOS | MND = 2
Au        3.88601445531332    0.72172501796149    3.98611948019722
Cl        3.75125552774145    0.74368432849244    1.75398294459527
S         4.77001241738139    1.86847937382715    6.91041064724646
O         6.17553163374805    3.31400104038303    8.68933373887242
H         7.05804322677528    3.61058958119681    8.44717550185552
N         3.50550700051127   -0.27309189025221    6.79697215890220
C         4.40548592965988    1.05347923426622    8.40625727731119
C         3.71101150361726   -0.08084161527643    8.15128017163680
C         4.85199915039787    1.63194930689766    9.70458823995258
H         4.84799811155971    0.87099964404058   10.48479984028977
H         4.17437843010699    2.43926952098839    9.99508610011969
C         2.74681999886484   -1.40140314238775    6.29731062178740
H         3.11714251896466   -2.32133669805929    6.75646518639948
H         2.92411642477395   -1.45054005110016    5.21709828200049
C         0.52470029178441   -2.27660251612904    7.10106553360295
H         1.00704241868603   -3.21210010038503    7.34756570166040
C         3.19045407352707   -1.06351071716306    9.14168200764195
H         2.11358943397043   -1.18088889732229    9.02997587537326
H         3.39848047242200   -0.72397058089620   10.15133622598598
H         3.65811490746871   -2.03800669882902    9.00143245066954
C         3.99431871495872    0.66027985572873    5.98208685191409
C        -1.45593267531356   -0.92717561143655    7.00609060332920
H        -2.51411239104648   -0.80613343240921    7.18174344484786
C         6.25653073154672    2.22517317676018    9.57807532449859
H         6.60586902517856    2.55625991668431   10.56616080163146
H         6.94786090127249    1.45862929498523    9.20126375213793
C        -0.83277563654460   -2.12182107971691    7.32313103481398
H        -1.40302545859944   -2.93547307375658    7.74591106142239
C         1.26821042484379   -1.23901110764002    6.55460381831343
C         0.63580994234723   -0.04525294513403    6.23047469372321
H         1.20767654770003    0.75844792555443    5.78885817321538
C        -0.71967067923338    0.10976128755368    6.45738405395699
H        -1.20215737438912    1.04013165257250    6.19947840009351

