55
CSD_code = PAYNEJ | q = 0 | S = 0 | Stoichiometry = C30H21ClN2Pt | MND = 4
Pt        3.50119423549386    1.75596435098870    2.06607756830353
Cl        4.24346768034289    2.48611560565219    4.20597414225658
N         5.09489363623831    2.37176961008212    1.05994653835733
N         1.87598574038503    1.17909253908654    3.01451283099422
C         3.04586169411993    0.99194396716051    0.26770051520903
C         2.00471250151629    0.13876755003831   -0.08567046857103
H         1.20946911581556   -0.07119708758489    0.62012922870355
C         1.95974433215523   -0.46692307637406   -1.33106822056008
H         1.13728158961409   -1.12163023516784   -1.58362309721951
C         2.99252121304101   -0.27550596262172   -2.23570653891977
H         2.99192867545108   -0.80342854460824   -3.17822547598967
C         4.03138769440823    0.58016364719192   -1.92669306294067
H         4.86208090380393    0.66908720923448   -2.61007512571938
C         4.03397323505768    1.26301231556782   -0.70902679050310
C         5.05950672197543    2.20179294277649   -0.27110895827045
C         5.96000597535756    2.91644355447694   -1.11410081806952
C         5.78747716270543    3.06136310053297   -2.50706478410606
H         4.88823957501833    2.69061195390189   -2.97047010743566
C         6.71598349074752    3.72492675496800   -3.26305203211158
H         6.56635226978822    3.83272521829241   -4.32712901354689
C         7.85639534068018    4.28399053724998   -2.66945899588735
H         8.58867950359170    4.78294241147803   -3.28673318096272
C         8.01072228996909    4.23652668354152   -1.31187369335416
H         8.85184973778236    4.71505946042231   -0.83202341206784
C         7.05694891720625    3.58583179902624   -0.50533072362618
C         7.11892528255143    3.61085467098071    0.90371217754936
H         7.94439407703889    4.09817187241337    1.39800191187567
C         6.09956006519391    3.06571321624428    1.62905849029974
H         6.06700312342014    3.14366928921143    2.70826181622186
C         1.02454797424584    2.09037343286644    3.46752035728722
C        -0.07482742039370    1.74299047312267    4.29261436530109
C        -1.04178763323624    2.67921768093862    4.71809488398255
H        -0.96385572394891    3.70217934825260    4.38325422240760
C        -2.06747131933261    2.28960183066745    5.53458324107619
H        -2.80322306164228    3.01006605254841    5.85945670017100
C        -2.18044300097477    0.95568068882866    5.95623026863298
H        -2.99465527896817    0.67278688046361    6.60658156729164
C        -1.27512734642554    0.01962650993680    5.53737372353997
H        -1.36310164339906   -1.01260847468742    5.84289624916483
C        -0.21068242743965    0.38673725730866    4.69276820464237
C         0.74023477893876   -0.53957166566091    4.21017076746497
H         0.67444645821175   -1.57598259343948    4.50269594340735
C         1.73173976017028   -0.11564208319526    3.37620595518019
H         2.47109313741577   -0.80082679697036    2.97562622666002
C         1.33263913607453    3.48698684899555    3.10499655958802
C         1.54290841185403    3.82912912779932    1.76402362794028
H         1.30622213094492    3.11839909172388    0.98010620749731
C         1.94673788885282    5.11285653328455    1.43540495788241
H         2.10248981343471    5.37438459273604    0.39904122580101
C         2.15404950619728    6.05551582702002    2.42984746570546
H         2.48956433059161    7.04872080470965    2.17078530221154
C         1.93173221819983    5.72317147496976    3.75513483450094
H         2.09635306091867    6.45461819119742    4.53213270572697
C         1.52006958971859    4.44685881596404    4.09500484002271
H         1.39380087950315    4.17477479645468    5.13220887697858

