235
CSD_code = PAYPAH | q = 1 | S = 0 | Stoichiometry = C96H126N5O7Zn(1+) | MND = 4
Zn        9.34632522779460   11.73824855387639   16.84295677653813
O        10.01336805338079    9.49652382195698   12.48897538016646
C         9.99286337284946    8.73094715753517   11.33633797813026
C        11.14680565278546    8.05974759992577   10.93257487871515
C        11.10490804503990    7.26757834257321    9.79409004557077
H        12.00498133546075    6.74483194798822    9.51292713224776
C         9.95470122908678    7.14332094095325    9.02691968681600
C         8.85243754886558    7.90614900411106    9.39725540764229
H         7.96252785721870    7.89914641388460    8.78475663191624
C         8.85314001320624    8.70305281838769   10.53089516178879
C         9.86520153217514    6.23992941600446    7.80699641844698
C         9.60398575308025    7.09769891009678    6.56146500049107
H         9.55089247398312    6.46637095216212    5.67749518475209
H        10.40918168882197    7.81643468842853    6.42479866883497
H         8.66902339097096    7.64486542532252    6.64516098821062
C         8.70879508749829    5.24948774106815    8.00931197138598
H         8.86932031053161    4.66182699287109    8.91137246847385
H         8.64650508322148    4.56931728741810    7.16312144854470
H         7.75558133564468    5.76351364162256    8.09929470520669
C        11.14591901765099    5.43402787726607    7.57474523347227
H        11.37360369746982    4.80485019792513    8.43237313814667
H        11.99120980370406    6.08841843988769    7.37552152050799
H        11.01448270959989    4.78746716865894    6.70991609032714
C        12.42139144432547    8.20284045048787   11.72642684116104
H        12.60737058118190    9.26340355880273   11.90695163741678
H        13.25364952510217    7.78865258594874   11.15092559255391
O        13.09708912936826    9.43106238179725   14.26959261443975
C        12.56479945517974    8.14620493236624   14.25230499011976
C        12.23961385946588    7.53139106993833   15.46479229288147
C        11.72746857998385    6.24656834883758   15.44759732946209
H        11.45612747904831    5.79176795890130   16.38668298273388
C        11.55640969321374    5.53348891478002   14.26427655334813
C        11.82070552186987    6.19020702525539   13.07490325807862
H        11.64290891387016    5.70984503025192   12.12695254351102
C        12.29534449232352    7.49578720567189   13.05115660314291
C        11.06063952742750    4.09808962941746   14.32648610846978
C        10.97753516386771    3.44239954015606   12.94603139546026
H        10.64382779772974    2.41251784110720   13.05321456586588
H        11.94984216210522    3.43249276884644   12.45930570618072
H        10.26419347122726    3.96097311846683   12.30964071024218
C        12.02335314765247    3.27507260016869   15.19388391985073
H        11.69583881730867    2.23873641682272   15.23862347103201
H        12.06792866873663    3.66313798929334   16.20817413850125
H        13.02594398674233    3.30139489806329   14.77209919898998
C         9.65992682262371    4.08984367324591   14.95039431405361
H         9.27880713439146    3.07292150676329   15.01221225531414
H         8.98049501618394    4.67887478725346   14.33833324995885
H         9.67524840943963    4.51575835516015   15.95031915961005
C        12.38786154119099    8.32946105507036   16.74025554541427
H        11.65083634222287    9.13745250059509   16.69809346687269
H        13.38321081271211    8.78550387647032   16.75441573941959
O        10.28792745360893    8.86545465717483   18.61280838619184
C        11.11765450958400    7.77440842755977   18.84557428143355
C        10.88030895418527    6.93451049519975   19.94046350475487
C        11.73104682391210    5.86402786703881   20.15694727910253
H        11.52869479848423    5.21907987604159   20.99884568276030
C        12.82242946587051    5.59778412678513   19.33336440375351
C        13.02220921959587    6.43638150551405   18.24858518638850
H        13.83526341425873    6.26460079530757   17.56217859203802
C        12.17702598896362    7.50949128075936   17.98007000369660
C        13.71573323283540    4.40564926276000   19.63627440823518
C        14.34140466629103    4.58964014521924   21.02600157245298
H        14.98535466650568    3.74517170984395   21.25908614576728
H        13.58093598417217    4.65954569546736   21.79879714942038
H        14.94143421247003    5.49712824750147   21.05318362540212
C        14.84657077339333    4.24427490589226   18.61716796209427
H        15.44566550084722    3.37503972964982   18.87840535260302
H        15.50115263630107    5.11284879263666   18.61566989120081
H        14.45356795892068    4.09056505059010   17.61488934919181
C        12.86703376286157    3.12630713019375   19.61434436764943
H        13.49577078244777    2.25937930910218   19.80228347260212
H        12.39447198853542    3.00235106016950   18.64214961724700
H        12.08883978209536    3.14975325968841   20.37195345759102
C         9.69055708362935    7.14700979562392   20.84422196422165
H         9.73040998221236    8.13455425407111   21.30548333271883
H         9.71487903687381    6.39795190936980   21.64017858087938
O         7.76627058977372    9.29416800982002   20.59672297601020
C         7.51092137314301    8.07821698389589   19.95678917557563
C         6.35609762893214    7.93947053848622   19.18366821093972
C         6.07997712205193    6.72020662047699   18.59767740068797
H         5.17764601232833    6.62856122060362   18.01449012291362
C         6.92598307400274    5.62417442050097   18.74206777339224
C         8.09513835125700    5.80493649254284   19.46267413732001
H         8.80322548990227    5.00003003797111   19.57700529986110
C         8.39962282610122    7.01606488206356   20.07317527671774
C         6.52057472902986    4.29547060220328   18.12493550688551
C         5.22083585150119    3.82420920518348   18.79345331470416
H         4.91236604936941    2.86748798970263   18.37836792876565
H         4.41721940029237    4.53864223754922   18.63716872229969
H         5.36852423448711    3.70369651210747   19.86456809754301
C         6.28714512511572    4.48740193588298   16.62073062503698
H         6.06012324075712    3.53276965327191   16.15148878677510
H         7.17756863204950    4.90235622202855   16.15555334179950
H         5.45856951948783    5.16484463652464   16.43256290096982
C         7.58091584182913    3.20882704658116   18.31705760705308
H         7.24912882649887    2.28949036291334   17.83960796610486
H         7.73867598320799    2.99881975166959   19.37221107205757
H         8.52572138488425    3.50031364925012   17.86560689408793
C         5.45491205564629    9.14156872444778   19.01690787385537
H         6.11255476748319    9.99768014217719   18.86765116326195
H         4.89853295821532    9.29841971848439   19.94804038052200
O         5.97256670690770   10.16655303455779   16.37737851329323
C         4.73879189039148    9.57567745445976   16.62890858826052
C         3.78385774498266    9.47827716590526   15.61422916992439
C         2.59840438272003    8.79810692817041   15.86438365766199
H         1.88250940273182    8.73274869144262   15.06109651402881
C         2.32326786527816    8.21341443968637   17.09218047567600
C         3.27511821157299    8.36094554217444   18.09383899505053
H         3.09737870659323    7.94292389994080   19.07365848612252
C         4.47324334621268    9.02872026487813   17.88648831390378
C         1.05203943423116    7.42870852080567   17.37245969897609
C         0.28419642026364    8.10359869957263   18.51739722980682
H         0.87213660890676    8.12882539733509   19.43074318227304
H        -0.63439031865248    7.55875483389281   18.72090346074550
H         0.02512306086911    9.12536656546348   18.24724390728730
C         0.12696354115036    7.34985135363438   16.15545141460234
H         0.61826729156965    6.85536374220268   15.32068135018386
H        -0.19995463903740    8.33950254144861   15.84484817730698
H        -0.75782718451314    6.77181817712608   16.41176865781843
C         1.43650480875810    5.99746834783873   17.77525602599277
H         2.03509830895334    5.98630564220997   18.68223094251496
H         2.00734435621984    5.52224270394996   16.97974617887004
H         0.54116312168302    5.40712388358884   17.95407347096823
C         4.01423350657862   10.06725548274068   14.24901392427668
H         4.50776348711729   11.03577588225606   14.32240166450810
H         3.04259112267261   10.21363878872746   13.76543497108753
O         6.13283118532228   11.12337860666107   12.67598891578938
C         5.85892565915270    9.75928084075062   12.57111274219096
C         6.60832230156274    8.95887786823660   11.70554958311932
C         6.33315411023267    7.60401288291261   11.63838453477424
H         6.92319177555604    7.00330604206165   10.96331392960387
C         5.33960405177905    7.01080384610284   12.41050564505493
C         4.61726142678296    7.82633807176406   13.26820171016221
H         3.83819669664540    7.41770416336918   13.88997951623743
C         4.86024724353689    9.18996030362900   13.35560699636491
C         5.08603743667591    5.51780295912965   12.27483500404552
C         3.95521840626471    5.02864613543219   13.18318483026259
H         4.18438911837308    5.22035256915936   14.22871341613792
H         3.82853410340448    3.95552112346462   13.05821968271636
H         3.01371699426891    5.50935010727838   12.92763827406035
C         4.70504867662841    5.20380727167171   10.82133227043306
H         5.51023578119585    5.45719152886179   10.13768334666776
H         3.82015657376293    5.76701728368167   10.53262540073886
H         4.48925722343889    4.14341393314749   10.71263335048146
C         6.36707017487310    4.76139684429412   12.65117524106010
H         6.64423045344383    4.99055955084720   13.67750958467928
H         7.19407194297303    5.03539801149897   12.00138665045954
H         6.20823410668942    3.68878189998257   12.56656355396078
C         7.67911088744100    9.58848063004519   10.84797484560094
H         7.22359006842234    9.89924565122530    9.90104940452968
H         8.04242247002614   10.48152437306108   11.36246800451816
C         9.31875301608681    8.94036615663721   13.59977341213615
H        10.00796777215106    8.32473933939896   14.18859756869957
H         8.49807757556109    8.30698706801477   13.24712611961415
C         8.72507319337583   10.03491814375390   14.49915459634968
H         8.18059257383674   10.73884952463119   13.85230776491556
H         8.01319280206498    9.55112985864052   15.16931163285108
N         9.71277282586294   10.72451337313298   15.29556994762926
C        10.62100505549846   11.47360895237273   14.49034283635824
H        11.03658853940905   10.83821158341977   13.70950102891371
H        11.44045548674136   11.83888564056857   15.11771639224429
C         9.95795479128560   12.68442611893968   13.81676137556309
C         9.96552382886088   12.84956342849890   12.45641215766194
H        10.42708348805617   12.10670617982733   11.82627707596446
C         9.37579216141122   13.95678627282917   11.81277026085791
C         8.81088038282301   14.78215566236801   12.71684865074653
C         8.70669388249762   14.77136809091281   14.03695428873177
C         9.31812247620105   13.59322906928331   14.66884181525539
C         9.42250446053957   14.16660326384459   10.31792115521542
C         8.01861070230740   15.82730690159052   14.87651934213699
O         9.21018527924508   13.45702956494474   15.93593224735571
C         8.56054559509630   15.38471538668014    9.97047505473795
H         8.59974768596579   15.58519865343492    8.90230026211218
H         8.91727757958642   16.26528386974009   10.50042599290222
H         7.52329972578517   15.21090527443173   10.24998382151154
C        10.87287493840783   14.42875897738330    9.89624850980243
H        10.92238997284395   14.62168286652457    8.82708002347501
H        11.50223680751932   13.57099284233807   10.12077913800345
H        11.27104904563134   15.29401740896448   10.42196870162786
C         8.88084319882127   12.93819589076877    9.58140240830538
H         8.87389617566046   13.12281888205730    8.50944216319361
H         7.86341527407017   12.72534817410340    9.90116056121468
H         9.49394725401910   12.06012823378533    9.76869694045198
C         6.81922792583703   15.21780030771297   15.61004776246185
H         6.29521125968116   15.99229934117900   16.16635066132078
H         7.15846708498817   14.45518054822374   16.30588079604017
H         6.12720674390912   14.76703636389741   14.90047029969421
C         9.00657569573984   16.41329859861766   15.88827979865986
H         8.52015551100902   17.18673227797444   16.47836721785565
H         9.85922747997093   16.85306460814965   15.37503518801752
H         9.36226860862077   15.63446214964146   16.55721258864785
C         7.52953361753678   16.93952716959447   13.94221507893599
H         7.03234547297605   17.71935701050199   14.51505564817498
H         6.82698127348711   16.54514036797752   13.21097082288426
H         8.36688854215751   17.38482704513249   13.40990324278852
C        10.52934460491994    9.97409663506144   19.45607459776092
H        10.95878996023251    9.65985765917493   20.41467717398796
H         9.55251989967898   10.43275133276107   19.62859428414957
C        11.43533950209157   10.97505114513807   18.81695335787988
N        12.76479016206868   11.07176330470005   19.01712538117424
C        13.21178469721375   12.11659149820862   18.26117144690073
H        14.24105393403175   12.40944261321006   18.24489514516369
C        12.12614195752706   12.62038087732072   17.61234030197672
H        12.05588705383277   13.45123197498722   16.93990900087588
N        11.02665763709787   11.90086143024805   17.96720027000539
C        13.57799538591493   10.24796042850823   19.87218828542902
H        14.62675845713895   10.45388978683387   19.66901695780806
H        13.38008643383547    9.19169983241222   19.68468577105861
H        13.37654787821653   10.46761676403445   20.92299117240902
C         6.02453962337941   11.58017662746042   16.39440319168913
H         5.04642987241420   12.02345814453153   16.17616983824007
H         6.73900145657266   11.86998216520588   15.61658317630520
C         6.51673451598992   12.08773247581375   17.71193635787059
N         5.73488983397256   12.58951053376473   18.69031753012704
C         6.55193227444733   12.91237040279429   19.73428826168561
H         6.17617866507438   13.34012213165007   20.64044787028070
C         7.81733922166408   12.58740635900651   19.35233134102659
H         8.73824409211383   12.70132613499235   19.88607410496205
N         7.78119858107019   12.07082501018299   18.09486295393046
C         4.30562787045379   12.75115197601888   18.65987362128877
H         3.82041748094516   11.80950043654370   18.39782157371863
H         4.02130879942013   13.51432691312334   17.93269400603169
H         3.96386465099582   13.06248524249432   19.64458213540830
C        14.48738023305078    9.46989249446107   14.03341375229243
H        14.76905524146304   10.52200111949607   14.03771087856855
H        14.75295380995215    9.02668099098323   13.06850756655531
H        15.04178608524599    8.94184019905210   14.81892530145229
C         7.23254458237649    9.36358525678009   21.90188145725406
H         7.50235437847562   10.34441674690772   22.29220502800831
H         7.64913774081125    8.58515649069098   22.55013909778791
H         6.14242779233190    9.26235827138091   21.90106557535596
C         5.45695597049722   11.92529508902421   11.73251460432764
H         5.82287889073029   12.94099087944091   11.88067575071441
H         4.37231478167806   11.90045394259612   11.88795708381519
H         5.66639171267685   11.60823951291724   10.70643081291232

