84
CSD_code = PAYQOV | q = 0 | S = 0 | Stoichiometry = C25H50O5P2RuS | MND = 6
Ru        0.55232720679347    2.98801880095926    4.45867701252298
P        -0.15281518088383    5.23240163141920    4.14370284183471
P         1.44421678972547    0.81586918393732    4.81102808086335
S         2.25458232905171    3.36114176278519    2.78132109080198
O        -1.27238499974673    2.68449912606778    6.80360284061196
O        -0.77555138462726    2.27326014762928    2.90927150295492
O        -1.68081944868470    1.62483967198341    0.96778802448107
O         3.61212215749901    4.03403604633830    0.46241818059274
O         2.63435184175870    2.56886631135725   -0.92294437974842
C        -0.61318465467356    2.77878741946942    5.85833376715767
C         0.87065036642292    6.46565578633151    5.09883933227379
C         0.72708082162166    6.25975066770261    6.60436278553658
C         2.33406236813907    6.32969930686316    4.68589701359322
C        -1.85993748320589    5.54113608011508    4.85171702200452
C        -2.88495179758989    4.53477647657042    4.32823337186294
C        -2.40484035006956    6.96293386034198    4.75839606914017
C        -0.08344284851239    5.95381934600132    2.40505685796443
C        -1.25976312984927    5.46414340177875    1.56061578639421
C         0.04455158237104    7.47103538506849    2.27429957846414
C         0.25160240523587   -0.29499426745731    5.73548630499164
C        -1.12315212638335   -0.33653593689409    5.06795308667559
C         0.73153709784053   -1.70450650929665    6.06722980880716
C         2.11286500301718   -0.12668506550020    3.32383128519560
C         0.97740664310802   -0.73193302553882    2.49851158118646
C         3.17907824173260   -1.19051128580852    3.58264453568690
C         2.91817725937092    0.80469832408516    5.95516417536668
C         2.53573085795345    1.26414950796482    7.35950763967543
C         4.00504581422993    1.71096633503978    5.38266403061109
C        -0.63685196920871    2.12191933371900    1.68737662775081
C        -2.85668472680749    1.31390772115561    1.68829971301836
C         0.48218270628114    2.40106319283831    0.86242388210783
C         1.69390953897603    2.92745827530181    1.24210962908408
C         2.67762077569312    3.13595956535760    0.14261745085664
C         4.60551267441994    4.27376854786611   -0.51896769940806
H         1.55510911972373    3.49975051546554    5.46113914845953
H         0.51409492802534    7.46847511882261    4.83998878788422
H         1.50910808674249    6.80903037494434    7.12584646309451
H         0.83026481577597    5.20162772160579    6.84768680299902
H        -0.23319594519121    6.61353783633217    6.97157662736025
H         2.93645391183924    7.09785650549735    5.16894707157199
H         2.46245839475288    6.41526319849373    3.60900982581307
H         2.71020921530946    5.35317597287166    4.98606241559922
H        -1.69122619638060    5.30158363606689    5.91143162620658
H        -3.71185253257110    4.44499332170946    5.03169039567554
H        -2.42619789420243    3.55122160529849    4.21825077215451
H        -3.29272545685502    4.84357608966961    3.36888264780258
H        -3.31227757940686    7.03732949709378    5.35736576331716
H        -2.66469419462211    7.21948179525796    3.73441268182582
H        -1.69446725305053    7.69394946863586    5.13602326798745
H         0.83415172428483    5.50642128418951    1.99512751003381
H        -1.02689089055317    5.56156120400549    0.50049881657851
H        -2.15270090576154    6.05192738025662    1.76320395488931
H        -1.47954263896524    4.41905813015197    1.75930772768059
H         0.02833649573641    7.72564824929607    1.21447072767274
H         0.97972748278294    7.83967633662902    2.68540886234401
H        -0.77965631780740    7.99079939385901    2.75422462028366
H         0.13252936370349    0.26319550441384    6.67518465760532
H        -1.88426470974891   -0.60727791768159    5.79876290080972
H        -1.15379440514584   -1.06845653078279    4.26465262615961
H        -1.37620475753674    0.64465538237065    4.66389870632253
H         0.02095002411156   -2.17243066755631    6.74828069577204
H         1.70413635980105   -1.69705428565476    6.55257490989173
H         0.78725847569188   -2.32227259052930    5.17445411514485
H         2.57562102628705    0.66981827195007    2.72253076710459
H         1.31655151160846   -0.92496887843844    1.48130287726433
H         0.12725731598593   -0.05827711787381    2.44379880783851
H         0.64667884235705   -1.67533978452350    2.92809142186294
H         3.42834662165805   -1.66188110240939    2.63197201086247
H         2.82364953672930   -1.96533557065078    4.25579402865827
H         4.09307166156056   -0.76595566070989    3.98742285346370
H         3.29459490736909   -0.22269866264197    6.00572251082896
H         3.43565899909331    1.48624245482851    7.93049881526208
H         1.97733341365860    0.50160125149220    7.89686043609810
H         1.93203722674243    2.17070916831412    7.30403670280602
H         4.90265363200858    1.65996000498253    5.99736143412281
H         3.65280899563309    2.74089774026074    5.36621920433976
H         4.26794117201819    1.43565175769967    4.36368137370255
H        -3.56451863140705    0.93627960486668    0.95455724144024
H        -3.26178052865789    2.20333532954093    2.17868141883203
H        -2.66070942171873    0.55261052544319    2.44819721273862
H         0.34922069572825    2.17798355715397   -0.18619982340046
H         5.27241624134656    5.02237625264794   -0.09884484713905
H         4.14790599784677    4.63850004100418   -1.44180712604009
H         5.15112968263226    3.35379216075736   -0.74061128059396

