57
CSD_code = PAYREN | q = 0 | S = 0 | Stoichiometry = C18H25B10N3Zr | MND = 13
Zr        8.21272120074930    4.55153421331346    7.29593455044779
N         5.56015617916985    4.50715356340189    5.80108620948906
N         6.83930598009608    4.65240644195196    5.79491208028667
N         7.68297944182208    4.72730773715304    4.82182440257572
C         6.20472973763419    4.53804728775388    8.30899670434465
C         5.05453970475458    4.51035026674789    7.11899252252829
C         7.33740571846018    4.67006263686913    3.47707748896558
C         8.40519003491388    4.76944078953078    2.57504314546690
H         9.40410460763431    4.88657395370183    2.97124455129532
C         8.18018406810651    4.72035196669441    1.21676920749952
H         9.01135088797315    4.79746224951548    0.53070476052194
C         6.88959215838529    4.57225325704881    0.72896626489754
H         6.71413104252725    4.53370140461795   -0.33576802016560
C         5.82923499300232    4.47468775258685    1.61406594629896
H         4.82296014139959    4.35992792826838    1.23769387620245
C         6.03863780383908    4.52177913623729    2.97953371548207
H         5.20754707375674    4.44557172950390    3.66260081624982
C         9.91595552898217    6.26733680577758    6.60897692594654
H        10.47492374992989    6.22080061943395    5.68116431506567
C        10.36488702507456    5.82787998544947    7.87085336757416
H        11.34064607108733    5.41558161159154    8.08892814843806
C         9.40192894071479    6.18520036840778    8.83548262505636
H         9.51134270021911    6.09195623032239    9.91000714118565
C         8.37979531355600    6.90662485479417    8.17532617372876
H         7.60386362932463    7.47498858609107    8.66774386880287
C         8.69062721585934    6.94763295218164    6.79740970384408
H         8.15972060416497    7.51551500966424    6.04117995099826
C        10.33080708611335    3.05346520044288    6.99203083082696
H        11.34686596122031    3.36906294397558    6.79700985498686
C         9.41714967158226    2.63312767925886    6.01123380096792
H         9.60136331453081    2.59782748080088    4.94519505239616
C         8.28168510000364    2.11569127129126    6.66389446347549
H         7.47038669828733    1.59022893466021    6.17443553286819
C         8.48752799715477    2.23289856171899    8.06385441214776
H         7.88161068108510    1.77262681674526    8.83553274215003
C         9.76058343438354    2.81976876840929    8.26136074110190
H        10.26581634392592    2.91545216456134    9.21621434258401
B         5.24575085550666    5.96662700643574    7.98896294021824
H         5.76397972587091    6.83750127143087    7.38243594399224
B         5.58230797753209    5.45740681963450    9.63186978001602
H         6.36683246417067    6.04946854481364   10.28698340887847
B         5.57848902798182    3.70284200948581    9.67826422316974
H         6.36529529188641    3.13761126313756   10.35678616124301
B         5.23440144557166    3.10326586755595    8.06884412004350
H         5.73622293035756    2.17578582866303    7.55012769713197
B         3.64110739495650    5.40657019603263    7.51468216057424
H         3.09241686489301    5.96790874363441    6.64235406259667
B         3.94950905087281    6.02073326108385    9.16380837571720
H         3.51346441757363    7.04738699302700    9.53586520794270
B         4.14045696972850    4.60144813467507   10.23033986527237
H         3.83395945659029    4.63303125328292   11.36531491313415
B         3.93707988426314    3.12908422292752    9.24283712862997
H         3.49344663358506    2.12799151689622    9.67119259915855
B         3.63876709476938    3.65193952778326    7.55825489664414
H         3.08351955024261    3.04742795266749    6.71957746790853
B         2.93906549069376    4.56952105551772    8.91034007005219
H         1.78056963153379    4.57876937084756    9.11104676114612

