57
CSD_code = PAYRIT | q = -1 | S = 0 | Stoichiometry = C32H16CuN8(1-) | MND = 4
Cu        2.85449118983977    0.25277856489219    9.12378435409143
N         0.87784453332352    0.08698515621015    8.97309766199044
N         2.68947088769089    2.20652882293763    9.15202041220910
N         0.72835095331782   -2.29141095925482    8.62495570840550
C         0.07248036279718    1.13856597838860    8.63082709810114
C         1.82089735877508    4.30678299501461    9.01043051545836
N         0.33186364984163    2.41515204738298    8.68267295726945
C         3.79049000194531    5.66899074887949    9.46490337433891
H         4.84367411960775    5.74740795664690    9.68943651139729
C        -2.34423083955627    1.25156454850303    7.68048233719998
H        -2.42277074642847    2.32780115551343    7.69099629623779
C         1.53926952638365    2.90104044759081    8.94931261507559
C         0.25954197243031   -1.07486895623498    8.60253136946077
C         1.02726938792579    5.44177534678855    8.88675359776473
H        -0.02446529011418    5.34671978853653    8.66187277954034
C         3.70801825551474    3.07930722722103    9.36538344880408
C        -1.07079189492374   -0.77074177808698    8.10061543079702
C         3.19649479988054    4.41970326715889    9.32501428745246
C        -3.26746267987102   -0.93840961273528    7.22332913134909
H        -4.10014603593011   -1.53292062977591    6.87135218555427
C        -2.10671338864460   -1.56672079251965    7.64462883898014
H        -2.00428249123190   -2.64086726862273    7.62753456759559
C        -1.18852297078132    0.62874414979875    8.11799963141107
C         1.62708737952862    6.67279126801212    9.04275482457063
H         1.03853921065464    7.57524842226999    8.94013908740043
C        -3.38437317455962    0.44882184775876    7.24112619994068
H        -4.30552490916467    0.90443135200064    6.90259931258558
C         2.99415156171744    6.78525845987191    9.32514329617570
H         3.42463071178555    7.77150327248367    9.44063018373109
N         4.83118969279738    0.41857433839827    9.27536575111827
N         3.01951732758389   -1.70096995002817    9.09632737222701
N         4.98058053921660    2.79694919017027    9.62371112260503
C         5.63640379967269   -0.63298380243540    9.61788244277541
C         3.88811263679289   -3.80122231805708    9.23795271773667
N         5.37707078548562   -1.90958921215270    9.56597507384882
C         1.91853376600812   -5.16343335345928    8.78343464730476
H         0.86533340799682   -5.24185681254272    8.55897232015381
C         8.05331209685653   -0.74599649791001   10.56785312963568
H         8.13178564613139   -1.82223884788874   10.55748164379000
C         4.16969371121610   -2.39548460740249    9.29926130283852
C         5.44934433258819    1.58038808530748    9.64619629168168
C         4.68175340295275   -4.93621041498155    9.36158469840037
H         5.73347070586395   -4.84115173201716    9.58653819748590
C         2.00094167402071   -2.57375858215956    8.88319556265400
C         6.77985452591592    1.27630195268083   10.14776792280498
C         2.51251474610190   -3.91414510338568    8.92336794122897
C         8.97648798196782    1.44396796064079   11.02515117489610
H         9.80915415806052    2.03847398978653   11.37718263801803
C         7.81580889556806    2.07228539385896   10.60367368039921
H         7.71329919446783    3.14642121054966   10.62093724623999
C         6.89757913528552   -0.12317833086682   10.13040221049353
C         4.08193217150175   -6.16722906042660    9.20561240923786
H         4.67047363119643   -7.06968600180881    9.30825993333456
C         9.09339354826648    0.05673369336117   11.00736070089421
H        10.01452530570980   -0.39888056387454   11.34594093620357
C         2.71486854083405   -6.27969897942766    8.92322268328721
H         2.28438319818618   -7.26594447055921    8.80776023381717

