55
CSD_code = PAYSUD | q = 0 | S = 0 | Stoichiometry = C28H24ClNiP | MND = 5
Ni        6.94029595924487    9.83687554471014   11.02926541892707
Cl        4.90667064222963    9.72095218541064   10.56872695643255
P         7.36866474822634    7.97895987356586   10.05712315588774
C         6.88741200254680   11.73294660423296   11.89907642870270
C         7.72444394382211   10.87785992179407   12.65004086236555
C         8.74177133266527   10.39026306182051   11.80427534114848
C         8.72003547152742   11.17099886469831   10.57629466780979
C         9.58146060293925   11.23296693678572    9.48595756274532
C         9.28653152789169   12.11982960665656    8.46490098252977
C         8.15403586864569   12.92879928526000    8.51390311049615
C         7.27888658780744   12.87949134785298    9.58553819463395
C         7.55757645996338   12.00171192163132   10.62808217845565
C         5.73166253094708   12.52176465940813   12.41986955702131
C         6.62723250247152    7.93969282326447    8.39447956724236
C         6.60743264242075    9.14921592003760    7.70350107439184
C         6.08265179776616    9.21225634395860    6.42755377690937
C         5.56459353032506    8.06919086372690    5.83845272941514
C         5.56954429163129    6.86915396138021    6.52904518021217
C         6.09983399888542    6.79871417165439    7.80621371156466
C         6.80149971287079    6.45536705800235   10.86789396446951
C         7.29790365670784    5.20394914709732   10.51202040408427
C         6.82665761250539    4.07178957966064   11.15108077299386
C         5.86683164742647    4.18049216314876   12.14581236672578
C         5.37863193378082    5.42511716513409   12.50800152801101
C         5.84668364073576    6.56161463115110   11.87292942133028
C         9.12042897646876    7.60376685446415    9.71331349158333
C         9.91131738304714    7.16027342617669   10.77091171954271
C        11.26284169920371    6.94198225505069   10.58769630708583
C        11.84065568593773    7.17857157798506    9.34938616713341
C        11.06118657809576    7.63074132054273    8.29810373408998
C         9.70558770560448    7.84833710362961    8.47701442145612
H         7.59103350815594   10.63006748256725   13.69305958302925
H         9.58383288617929    9.78791147448693   12.11560722104727
H        10.46075097258372   10.60514839141185    9.44318968930471
H         9.94843734541423   12.18878026582487    7.61374375856660
H         7.95717707605129   13.61021201874871    7.69902766149917
H         6.39987177836391   13.50665935527306    9.61199975804163
H         4.87248870357499   12.43017815244470   11.75608866857804
H         6.00735107288150   13.57657140525806   12.47767830182319
H         5.44328094744315   12.17407043546159   13.40972132360861
H         6.99145463435159   10.04207069325026    8.18857531308320
H         6.06780730808632   10.15210739614882    5.89584386131372
H         5.14716571589313    8.11675977381697    4.84345161106191
H         5.15273327617896    5.98248218266009    6.07392304838838
H         6.08717493455336    5.86374093154865    8.34697021331550
H         8.05720046230487    5.12219910419375    9.74583516041574
H         7.20967102064147    3.10036333510432   10.87357645553028
H         5.50276736957218    3.29183724252433   12.64036544401898
H         4.63559771840587    5.51004962960303   13.28686833502137
H         5.47713944466637    7.54442611694133   12.14360218370999
H         9.45242707687731    6.98532892556113   11.73601720952023
H        11.87059551473794    6.59433363475801   11.41070706591394
H        12.89861685891105    7.01434207292578    9.20707103045701
H        11.51102477373199    7.81980178537167    7.33418605748295
H         9.10013692609192    8.20691201423172    7.65672628986984

