58
CSD_code = PAYTAK | q = 0 | S = 0 | Stoichiometry = C29H27NiP | MND = 7
Ni       -1.73840779118076    4.40171109806152    9.37792766009024
P        -2.14097216057316    3.57315696146191    7.44940308232918
C        -1.76207277287151    5.16707754761625   11.25309545814733
C        -2.55320293879827    6.00991390260486   10.42474898473825
C        -3.60075611318599    5.25691081829585    9.87663049564804
C        -3.63496725012332    3.97515521694183   10.54695801480819
C        -4.54983216621831    2.92304917319732   10.51866770611591
C        -4.33474953595073    1.83846891184004   11.34467854979616
C        -3.22820681760513    1.78277276496838   12.19339139095795
C        -2.30396689107089    2.80735436524210   12.23530534072301
C        -2.49470950267413    3.91528662294363   11.40948196989906
C        -0.70131673670466    5.64097623216293   12.19900470089232
C         0.20112703615462    4.00284371488421    9.41773626988414
C        -1.45080135078237    1.89667138920753    7.24610387484560
C        -1.42432716816427    1.11912579605582    8.40174662706259
C        -0.96006809977117   -0.18107380731946    8.35802532058102
C        -0.50477658635997   -0.70975558287137    7.15995934016356
C        -0.51070608198178    0.06674431438730    6.01348629686056
C        -0.98372495436583    1.36782985220472    6.05110467446086
C        -1.56370011674598    4.49375972373525    5.99057447661737
C        -2.02126372973183    4.23334598233461    4.70209770724833
C        -1.53507665367196    4.97043205690924    3.63756507339551
C        -0.60070899481530    5.97209342895002    3.85055275881151
C        -0.15767751032343    6.24722179019200    5.13396416697296
C        -0.64048510841654    5.51159410369974    6.20097651364783
C        -3.89404347217987    3.29346010973803    7.02601970870546
C        -4.64992890310365    4.38829085428588    6.61271452912800
C        -6.00151998416797    4.24951228393873    6.36418513175744
C        -6.61496040416954    3.01819360367157    6.53771284477331
C        -5.87073110062760    1.92977689968877    6.96009683876634
C        -4.51554120768937    2.06423296364235    7.20908879622999
H        -2.37544333308668    7.06334291159672   10.26209763222968
H        -4.41349350485144    5.64706074947988    9.27943857847196
H        -5.41541259219463    2.96654311909467    9.87097949095558
H        -5.03974269522835    1.01907079266282   11.34371494074950
H        -3.09958436509973    0.92218146717611   12.83459426554603
H        -1.45395523938774    2.75707550811136   12.90150221099596
H         0.05758423342341    4.87833314057058   12.35980964963042
H        -1.15893470528693    5.87189004846056   13.16386748700500
H        -0.21959589319882    6.54105429331947   11.82225302405533
H         0.60128384818289    3.57221245369940    8.49243864280296
H         0.39284128581903    3.28249791078024   10.22387999635225
H         0.76200214525940    4.92209400754945    9.63444724129693
H        -1.76208887515913    1.56007416304516    9.33473848635018
H        -0.94589984337965   -0.78114932996951    9.25593953115380
H        -0.13621076097054   -1.72434750057152    7.12192967275748
H        -0.14319434343807   -0.34214513189550    5.08335919079402
H        -0.97431793717244    1.97047773794940    5.15488576385954
H        -2.76735094766280    3.46747479361012    4.53815997229324
H        -1.88883648110817    4.76671164233730    2.63712553052339
H        -0.22629655791690    6.54453775441714    3.01462738053565
H         0.55933748793821    7.03754480303540    5.30077982433326
H        -0.32273127481588    5.71610715886974    7.21805624016050
H        -4.16590920977359    5.34870983154183    6.48749644090875
H        -6.58149178569353    5.10191515604134    6.04050339133012
H        -7.67300010858824    2.91045617750010    6.34882787933473
H        -6.34861764298460    0.97133309750868    7.10301001035660
H        -3.93996583574435    1.21491015141766    7.54863322116778

