59
CSD_code = PAYTIV | q = 0 | S = 0 | Stoichiometry = C25H31AuO2 | MND = 4
Au        6.92528602253123    6.85900132841268    1.16992029274039
O         8.67782808481660    7.41768282104750    0.13040343208436
O         5.78854461679225    7.52205811850281   -0.48355768836585
C         7.87597477642707    6.20735051976597    2.77507202076294
C         9.24354580377359    6.21054443319861    2.91470222263701
H         9.83970745033218    6.59318386028668    2.10155758869423
C         9.86220790476099    5.73321815284972    4.07402853283135
C         9.04824232138797    5.25494960115328    5.09165826056517
H         9.47792350904100    4.87746367243994    6.00570430666621
C         7.66948759244986    5.24572374048940    4.96545448697016
H         7.06224298462343    4.86578431954307    5.77424249720924
C         7.06682967896248    5.71834286844741    3.80897660480579
C         5.64860332544482    5.77053817336406    3.50898749195372
C         4.59810555163631    5.36094347638376    4.31688183681596
H         4.79802900836381    4.95404123527684    5.29755387470527
C         3.29045492293554    5.46811318869121    3.87463000479627
H         2.50233198110484    5.13749869172357    4.53204447144498
C         2.99352824480525    5.98392827596046    2.62058350867271
C         4.06003161331135    6.39865810682843    1.81727089659336
H         3.87220767921382    6.80775199294898    0.83728961379931
C         5.36335369643985    6.29843127820676    2.24290515268702
C        11.37983854710311    5.75968158900664    4.16062086376705
C        11.86188570191902    7.21079931369768    4.02618271365411
H        11.44370449351136    7.82060645653344    4.82437250230150
H        11.55779881533261    7.64067425890527    3.07614710596485
H        12.94740962540941    7.25377748627464    4.09041921326445
C        11.95886378676376    4.91123785228305    3.01979316137380
H        11.65341671827091    5.29309380147065    2.04991026069709
H        11.61287002875033    3.88306073003872    3.10426550083837
H        13.04633096889735    4.91504976468611    3.06287526703758
C        11.90619292657887    5.20123031586858    5.48545871248352
H        12.99379634875013    5.24281357954349    5.48994100177168
H        11.60938178606971    4.16356895444609    5.61772866971832
H        11.54448048459953    5.78605264683658    6.32773873024855
C         1.57675807269089    6.11384582153585    2.08460972671153
C         1.29109892732533    7.59101881112043    1.78032104675279
H         1.38843793547881    8.18638647385501    2.68583000557757
H         0.27910253891395    7.70688978067097    1.39731640703781
H         1.98380260143176    7.98245815809539    1.04087709242159
C         1.45407782366048    5.28447819076378    0.79855160306494
H         2.15032971080309    5.62880968582261    0.03922250485138
H         0.44509087124036    5.35892072891811    0.39757481190481
H         1.66758013123397    4.23774349737100    1.00528618417848
C         0.52154404012479    5.61653243482806    3.07639053451188
H         0.66603950685254    4.56336710211619    3.30595593309164
H        -0.46884471389501    5.73241209129951    2.64021792233613
H         0.55088581323787    6.19045448001879    3.99967841610516
C        10.07423909154645    8.24488911665849   -1.58229394750998
H        10.83300052306924    8.04896947751933   -0.83001120999198
H        10.12430995728209    9.28677312369815   -1.88862970043474
H        10.26639456410581    7.62336099741142   -2.45453393839784
C         8.70550008532381    7.92818471779261   -1.02472614786032
C         7.61401051639233    8.22565075370597   -1.83918815214110
H         7.83421014060378    8.66234829997344   -2.80174080789962
C         6.26794024493672    8.01716182379253   -1.54211024471208
C         5.26963477301118    8.42661417795731   -2.60071734696857
H         5.47240275599566    7.89689572210636   -3.52875161923402
H         5.35171558397644    9.49430946368332   -2.79233246748914
H         4.26190150355193    8.19737046416326   -2.26575971809660

