70
CSD_code = PAYTAN | q = 0 | S = 0 | Stoichiometry = C36H28AuNO2P2 | MND = 4
Au        3.67292173138236    5.26183198981266    0.76908096599145
C         5.12026331825021    5.69927116295885    2.03459756812217
C         5.12010050751724    5.35169694471598    3.36935381493232
H         4.28748127976421    4.80436245281658    3.78328172357186
C         6.19110548041235    5.70381210178086    4.18135550412790
H         6.18150770713454    5.42908712942121    5.22600747059956
C         7.26272377841534    6.40308172675561    3.65534848292175
H         8.09275945954478    6.67681017854603    4.29059577734482
C         7.27450707589140    6.75284115813745    2.31692313262399
H         8.11252128416874    7.29825344366182    1.90874267900647
C         6.20642173115745    6.40377902020287    1.49831392978061
C         6.06492011141729    6.69829985099043    0.08269180959452
C         6.98861206676969    7.35047350965336   -0.72582276331816
H         7.92375720771585    7.69313796101948   -0.30842433558184
C         6.71297424834398    7.55514033484018   -2.06587368943267
H         7.43564122561480    8.05599952531669   -2.69376083086267
C         5.51337340588489    7.12308761173080   -2.60159999620733
H         5.29301336179730    7.28515536510859   -3.64648447208235
C         4.58385148528251    6.47516972394962   -1.79842425549520
H         3.64869874526425    6.14651408269790   -2.22456867598915
C         4.85465373888410    6.25150072769356   -0.46479444160712
C         0.36004658582190    2.62996236701618    1.52452616039934
C        -0.20093115080514    1.40731943722767    1.18116744658200
H         0.44623167879412    0.54744343703839    1.06806107009702
C        -1.56395579242333    1.31225378621452    0.97953134952987
H        -2.00681556767894    0.36546957168659    0.70655825862446
C        -2.36220746701215    2.43729918979107    1.12184368788746
H        -3.42774624169999    2.36245604700942    0.95995414825371
C        -1.80086942548373    3.65490980565486    1.46850693811552
H        -2.42824492708234    4.52777385998134    1.57852459249668
C        -0.43499096392087    3.75537346743156    1.66839612556775
H         0.02750275847424    4.69619788882244    1.93254748478412
C         2.72441194036027    1.47378730305046    2.76762041711163
C         2.35474476203258    1.60223634413051    4.09915187908954
H         1.74579539927918    2.44707427864725    4.39268134117501
C         2.77194442883484    0.66062832331542    5.02091671088426
H         2.48894025717027    0.75403079785649    6.05940889333028
C         3.55471320156942   -0.40689051813588    4.60795041050593
H         3.87966585371282   -1.14421063734527    5.32771110608665
C         3.92265022853550   -0.53235173661501    3.27828736804107
H         4.53439167700492   -1.36587849164731    2.96420166706170
C         3.50799751028430    0.40947417602238    2.35289460427891
H         3.78075419413266    0.33806202974256    1.31048354378839
C         0.79156997830899    2.77461037574651   -1.71638336896958
C        -0.33744524868428    3.57796549502817   -1.73227696796184
H        -0.25951083416374    4.60142732069855   -1.39502389955886
C        -1.53890707754661    3.05507905398442   -2.17650955540150
H        -2.42462863403614    3.67362158846052   -2.18845416045449
C        -1.60684180448193    1.73844343448476   -2.60067071202382
H        -2.54750553870481    1.33176017539249   -2.94266505292260
C        -0.47438954813618    0.93787267296825   -2.58764254889300
H        -0.53391981317301   -0.08815710027204   -2.92096808266930
C         0.72671829648050    1.45499875677393   -2.14227968036411
H         1.62503251493045    0.85284655691966   -2.10856960488741
C         3.62047209488507    3.22842804972372   -2.30725760772574
C         3.29282895291172    3.58138751316089   -3.60835250437580
H         2.26098501553400    3.80150568356935   -3.85127792813155
C         4.28332928552729    3.65014568948866   -4.57056413530628
H         4.03415502197279    3.92250294395252   -5.58603894804754
C         5.59833738303691    3.37856708856368   -4.22727174429567
H         6.37264660076015    3.44115296491443   -4.97791290229307
C         5.92458402616711    3.03206118003243   -2.92625151485093
H         6.95152196213462    2.82568168693861   -2.66264667545255
C         4.93512247192207    2.95848228436468   -1.96249383428962
H         5.16416098826580    2.68836528119525   -0.94067562640954
N         2.83594005607801    2.37244422457662    0.18406278161689
O         2.53730245704074    4.11555342726558    2.16433417133119
O         2.15992559176308    4.82011470488195   -0.66224013565743
P         2.16522951522380    2.74796385302627    1.61976247803593
P         2.35634839541878    3.35384836548198   -1.01899684176520

