86
CSD_code = PAYVAN | q = 0 | S = 0 | Stoichiometry = C34H46CoN3O2 | MND = 4
C        10.55585944134720    1.76652080135043   15.57541569585407
C        11.74708613343146    2.34687558984191   15.16948397979231
C        12.49019356046752    3.12385941076326   16.03934023068831
C        12.04462274783533    3.33711861637638   17.32851256261069
C        10.84629160416302    2.79255776836558   17.76749039055591
C        10.10378257920929    2.00823709261511   16.87970867125662
C         8.88831940431968    0.26805015960499   17.83152505124166
C         7.59839431519524   -0.24485902581257   18.21160346527321
C         7.25828008794001   -1.28493255934407   19.07114434152842
C         5.91889632603018   -1.50282013917256   19.36367337062548
C         4.94329430360667   -0.66647521441957   18.83743322382772
C         5.32547029965988    0.36598183870025   17.98547085309735
C         4.56069245898394    1.44519634275785   17.41755873802600
C         4.54937144216508    3.54911218809175   16.44336059226815
C         4.28793785065875    3.63445548077865   15.07249711112454
C         3.54648420133196    4.70692834669905   14.59863352261865
C         3.08063033245917    5.68222872586595   15.45829926009996
C         3.36472557296282    5.60026769409808   16.80779073604759
C         4.10026627840698    4.54285109386727   17.32183452182375
C         9.71784235898850    0.91496156550059   14.64732953317657
C        10.50518155808449    0.31100389511509   13.48560901065449
C         8.54753628615176    1.74790928699000   14.11866287091280
C        10.36710795246524    3.01346003926384   19.18302289011645
C        10.47690142099781    4.47687924999521   19.61126211970868
C        11.15500805901416    2.11170234353899   20.13713953251899
C         4.77918628923700    2.56357005731815   14.12641068443491
C         5.49841832682902    3.16417267702967   12.91864329086156
C         3.61095431232299    1.68120764123937   13.68014517038155
C         4.39089134224361    4.46441930432217   18.80273330195146
C         3.12007220532933    4.08360558970009   19.56656539848118
C         4.96539799449305    5.77687760381840   19.33834938130560
C        10.18714681628133   -1.74045314745578   18.06979147139094
C         2.38655995879201    0.41073751970591   17.41507443931125
C         7.62028872110357    4.04809238058151   17.06972874521838
Co        7.13153428201358    2.15224583966237   17.02938001125317
H        12.11097152027107    2.18952297240437   14.16675315567951
H        13.42164464110672    3.56050719974567   15.70914802476688
H        12.63867194293630    3.93527064452454   18.00203713155474
H         8.01142103936329   -1.89562798258077   19.53919469383908
H         5.63760029314985   -2.30083860428618   20.03298562259411
H         3.91637720720590   -0.80754494391983   19.12724658008914
H         3.32046083238776    4.77751659223363   13.54554054748789
H         2.49653856482727    6.50700726249870   15.07642579838106
H         2.99915024230457    6.36822440738497   17.47216155165909
H         9.30594903596347    0.08397851931396   15.23185717055705
H         9.30950156412128    2.73296108114600   19.22885761683751
H         5.49892412128203    1.93710984831500   14.66771340600793
H         5.14279782100231    3.68458761683879   18.96255406967270
H        10.79980094289486    1.07579167577415   12.77105507462370
H         9.88468922870118   -0.41338564759668   12.96102245763395
H        11.39693759022128   -0.19777015285632   13.84545770203910
H         8.91689722431659    2.60558599825395   13.56097911168456
H         7.93551213893523    2.12065672929292   14.95763576728405
H         7.91898779434265    1.14643403666618   13.46566030511581
H         9.99099430050534    5.11898296289231   18.88149719674930
H         9.98853697350019    4.61649983940821   20.57353967294448
H        11.51414011676779    4.78665422505926   19.71266621254263
H        11.07244222135675    1.07234457356122   19.82906333939794
H        10.77489300754786    2.20886396369672   21.15221493535119
H        12.20838105149928    2.38497555463757   20.13402573177875
H         6.29313567559614    3.82769883879370   13.24955175806105
H         5.93604289993944    2.37367041160995   12.31280405944236
H         4.81358026110303    3.72794684051480   12.29043352754312
H         3.96538699449422    0.87411225586468   13.04160397344353
H         2.88205897953858    2.26686068959332   13.12390781990338
H         3.11058114109006    1.24867202491926   14.54333632077383
H         2.70925586879472    3.15520369712450   19.17828249779884
H         2.36512579814828    4.85980731385559   19.45983762260205
H         3.33782677708130    3.95612670523673   20.62522228782951
H         4.22387781818366    6.57173260039425   19.32291287775729
H         5.81717735757276    6.08605978014905   18.73842901080343
H         5.29588412885147    5.64332668643755   20.36648285548171
H         9.38512360721315   -2.23883486518269   17.52114375604198
H        10.17845663311373   -2.06476662952381   19.11458701799440
H        11.14844037458904   -2.00802010511876   17.62897271217612
H         2.86079982403744   -0.46978546320231   16.97574315864361
H         1.48308123299021    0.65459919074090   16.85416191325883
H         2.10681170451828    0.20399723754834   18.45245016908658
H         6.95732377902702    4.64583785564465   16.43613789245423
H         8.64254121335068    4.22468925060312   16.72381066415855
H         7.55428054841910    4.47396805496610   18.07399805871941
N         8.86600603319925    1.45996846836591   17.29554028795706
N         6.63700493965824    0.54737947882449   17.65403164969645
N         5.27325717030094    2.44126699326786   16.95506949231599
O        10.09571404298627   -0.33708107933826   17.97408583362529
O         3.21017695514024    1.55010933805224   17.32724573616101

