82
CSD_code = PAYVER | q = 1 | S = 0 | Stoichiometry = C33H43CoN3O2(1+) | MND = 8
C         7.33293686194376   12.44900310176398   15.35083823511090
C         8.54865349628052   11.79863843369115   15.50409467232698
H         9.42074138641767   12.17066360414630   14.99137503914736
C         8.66061894374931   10.68282960938037   16.31190772414255
H         9.61610277600864   10.19503334586014   16.42731051473563
C         7.54897320596936   10.18672051440422   16.96640079307631
H         7.64659934638414    9.31024912754354   17.58615137712740
C         6.31362546441419   10.80533673229796   16.84248555029211
C         6.22359365265963   11.95550949175072   16.04846874931357
C         4.67791862948241   13.56273426522677   16.78959606332646
C         3.36201861228421   14.14010211223752   16.57159969141844
C         2.73479652694654   15.11202315180990   17.34682965239802
H         3.21350760750443   15.52477991487453   18.21490419533990
C         1.47036466119792   15.54988355625158   17.00469175859673
H         0.96934118947032   16.30025084477323   17.59385358546788
C         0.86164726899373   15.00338543847290   15.88826093083075
H        -0.12086077572987   15.32230116720910   15.58472825280999
C         1.51361776718955   14.02455816094689   15.14472152069816
C         0.76421114686457   13.49593828133526   13.96508933928433
C         2.29630103593671   11.88400462097289   13.23726838744109
C         3.40931042450627   12.32023297923314   12.45810113909804
C         4.62002239905346   11.64414291400426   12.61301889274325
H         5.48293626028271   11.94302948318987   12.03725529591208
C         4.71812896160732   10.56205741467386   13.49797414682611
H         5.66883312241443   10.05920739342381   13.61779424535490
C         3.57375210859687   10.02090570127831   14.09915220012140
H         3.64599480025838    9.09268233032673   14.64581457864901
C         2.34129184066160   10.66407341290555   13.97642335485382
C         7.21224106568094   13.67172757273478   14.47111352182390
H         6.14679655487367   13.83109192589372   14.25366844148613
C         7.94920450933090   13.49914041246773   13.14152325042775
H         9.02546982906817   13.54318157125305   13.28101780045903
H         7.67367445377400   14.29964017407599   12.45825616958283
H         7.70455447125774   12.54418217628544   12.68205611726057
C         7.74611878234954   14.90181184196346   15.20987412275981
H         7.22495457724992   15.04180607162405   16.15284986882361
H         7.61576672469690   15.79371540813489   14.60147652477263
H         8.80522370987975   14.78135364774026   15.42370668522861
C         5.09940405860342   10.26507313953287   17.56183128151435
H         4.20455395739187   10.70273641017819   17.09782273519448
C         5.13666188709658   10.68358168836357   19.03402282479492
H         6.00165239748890   10.24690117118514   19.52690632237262
H         4.23928701880863   10.34409137129882   19.54596041428007
H         5.20533965167803   11.76420917003438   19.12562227906199
C         4.99474546381009    8.74275340418088   17.45079003389109
H         5.13258240930465    8.41762686401632   16.42206539893742
H         4.01746045946053    8.41260244885738   17.79634759020188
H         5.74344532684247    8.25186774955019   18.06571826315940
C         3.26132128699711   13.47017227771239   11.49102656971032
H         2.20656149851543   13.76368784988360   11.47786088541394
C         4.09472205088537   14.67196061646189   11.94186595415374
H         3.84078728387612   14.95211707330786   12.96469608624987
H         3.90395191905190   15.52274028725670   11.29304618345259
H         5.15556846106445   14.43981546043026   11.89851386154102
C         3.65214816262661   13.03418876472876   10.07711876149923
H         4.70998033095610   12.79262098676477   10.01620225248815
H         3.44792206291418   13.83995688394773    9.37704553999545
H         3.07883630771159   12.16133395301652    9.77408969041945
C         1.08573772484549   10.08563112476719   14.58372866467327
H         0.24394304510934   10.72118042622260   14.29009810992781
C         0.83248283996840    8.67844716154823   14.03738752652704
H         0.79951357721224    8.69076981929929   12.95056624845291
H        -0.12048302420502    8.30878319618727   14.40648150744038
H         1.60958373436899    7.98726172751479   14.35270117205526
C         1.17335803187524   10.07084634494146   16.11151989102246
H         1.95459300586437    9.39280454541659   16.44486476541576
H         0.22922860338135    9.73900578289246   16.53541177686203
H         1.39254556876968   11.06851356976066   16.49295392714543
C         5.53547178722824   14.89573162049956   18.65515357747460
H         5.37663588670551   15.86056184817938   18.16882861921868
H         6.51495025370160   14.89605577009111   19.13376731610444
H         4.77425993718773   14.71216273073000   19.41732195388726
C        -1.19016917442375   13.65505344887364   12.68931821361417
H        -0.65441768665540   13.80885956531365   11.75114888621926
H        -2.09935124331054   14.25038084246160   12.71050328770137
H        -1.42498607949246   12.59397092403667   12.78898037765730
Co        3.72664091981608   12.25553134742915   14.65752930706619
N         4.97709051353293   12.62462998205643   15.93934727873486
N         2.74912488110683   13.58289081814102   15.47604740234113
N         1.11760143406294   12.57996158678714   13.15988224316712
O         5.59927068136326   13.83797169977587   17.71894383797261
O        -0.40834061258069   14.09812864020265   13.78830879191846

