79
CSD_code = PAYWUK | q = 0 | S = 0 | Stoichiometry = C38H33Cl2N4PPd | MND = 4
Pd        3.42058488338251    5.67542165829413   15.47619412042842
Cl        3.73178109434199    5.06989011472633   13.28755285955686
P         3.16316109586670    6.34751371461919   17.57676733631277
Cl        3.53945270491518    7.98071813660378   15.12280164920253
N         7.52898636918127    3.58952387379720   17.09626352487873
N         1.89561152945226    3.39346611373802   15.93589794024607
N         5.49701307275098    3.31951183856124   16.37579111697625
N         3.92841969743722    1.69364100170243   16.80685836370788
C         0.62977877232421    6.78683323707335   16.64362564607734
H         1.08286849372860    6.55342787953531   15.67026121832220
C         4.21986115212475    7.70922672553598   18.14620579500297
C         6.40460419104784    8.70391546205958   17.99460905909699
H         7.40228642696240    8.71858241579190   17.58027948599154
C         3.14087398346009    3.80763450675572   15.91243034709357
C         6.00709601156185    9.69633800213649   18.87805294362942
H         6.69898202419352   10.47713005121516   19.15819632820628
C         6.38286912756427    2.93818988788209   17.29477461674636
H         6.17592063151371    2.23731371479469   18.07691630415466
C        -0.01608429376229    0.46934518734496   16.93020762833649
H        -1.03922150194366    0.12463631371168   16.96636432414360
C         1.60578788598355    2.15962251062653   16.39116525996998
C         1.00518158736974   -0.37713798168440   17.39474375963794
H         0.74693701131349   -1.35215066687485   17.78096488567316
C         7.36519353859965    4.40708459325132   16.01235638551358
H         8.15701246539025    5.02275825826103   15.63898812327558
C         5.51311602615331    7.71650765237428   17.62669056919661
H         5.78295438667423    6.96224551059728   16.88838482219782
C         4.65413259482024    4.90824030629875   19.47235360060478
H         5.40847292138719    5.67461369878856   19.34873403080693
C         6.08942135531695    4.24930642741564   15.55707999840832
H         5.59586621424437    4.65556744953546   14.67111905740857
C         2.63887487085249    1.29432646522878   16.85499224435934
C         2.44189638952839    4.08798687383130   19.03567249117221
H         1.47963207158869    4.20555735814733   18.55608498451520
C        -0.71893478710452    7.08009580587215   16.73704538589386
H        -1.33190521653991    7.08704160204917   15.84814599114544
C         2.31296166798611    0.02195048979094   17.35804833319494
H         3.11290084774777   -0.61235986492133   17.70837014379199
C         9.35588416893362    2.16869212919746   17.82744788025999
C        11.06617785146031    3.06181011424414   19.29441067689103
C         8.72373253642640    3.41496162485804   17.84642703224376
C        -1.28360094757884    7.36243536350055   17.97072575912155
H        -2.33565067511711    7.59694860389577   18.04238153826778
C         0.27023227325823    1.71271627773668   16.43847106712431
H        -0.50003593769434    2.37713785341637   16.07939017945208
C         3.41792504102580    5.06635139646846   18.85341796339105
C         9.24648460872020    4.48803870180873   18.56876410208169
C         4.71746412158250    9.70238375949970   19.37963969882042
H         4.40262866394247   10.48981809330773   20.04897007604559
C         3.82005348315195    8.71112114344101   19.01781664252154
H         2.80769044194098    8.73584946944810   19.39214425651252
C        -0.50655120251875    7.33075077110126   19.11798764559154
H        -0.95482740429942    7.53162706831903   20.08057067934581
C         2.70152055741383    2.97573341929239   19.81259426709108
H         1.93954485763815    2.22087864650387   19.94105234283554
C         1.41922845194524    6.78474854886456   17.79291717084046
C         4.15000171632755    2.89615153455850   16.34763136309971
C         0.84178509871904    7.03504098894412   19.03537866693059
H         1.44324047020253    6.97455856996170   19.93316654635671
C         3.94047288305439    2.82155714184653   20.41520919927641
H         4.14483884916663    1.94675256988908   21.01454154412069
C        10.41678138512184    4.28727510446821   19.28675140229048
H        10.82834992173305    5.11061365442928   19.85130392514342
C        12.31562860298776    2.85963482091256   20.09124524581869
H        12.81836386981207    3.80524574739822   20.27536183522130
H        12.99847660971414    2.18809695375207   19.57658859067181
H        12.07033577880636    2.41275207732488   21.05492952447112
C        10.52335275506326    2.01639068317471   18.55848041883834
H        11.02497198707865    1.06018998959569   18.54933267745687
C         4.91251535637368    3.79503298342950   20.25184368562871
H         5.87592729208139    3.68622146483684   20.73142561899826
C         8.80896375490998    1.02409376428524   17.02969503227466
H         8.00905582970807    0.52136527709176   17.57230619459723
H         9.59190523668367    0.29434703894024   16.84176998161678
H         8.41025167816173    1.35660152438184   16.07337108048171
C         8.58236334194194    5.82964315157751   18.57403320554879
H         8.94017441087107    6.43031650382651   17.73818083165335
H         8.81956685818133    6.36485839126975   19.48978984340955
H         7.50192812571994    5.74734075467110   18.48994393275942

