86
CSD_code = PAYXEV | q = 0 | S = 0 | Stoichiometry = C41H38ClN4PPd | MND = 4
Pd        3.69752384335169    7.18337274122493    4.43786219523944
P         3.26958520765648    9.37348435330751    4.13345467837263
Cl        5.01808784459199    7.69112143133541    6.29038321151453
N         1.42113461531379    4.91255683258724    1.80912606708572
C         3.86258636679816   10.05220736759858    2.55774206262056
N         4.42824138750664    4.18247642949964    5.08020801492886
C         2.49746416053727    6.77699638303894    2.93482253850627
C         5.74533890041136   11.80032790215760    6.21273709342477
H         6.81318252344798   11.95513125968470    6.26300910991719
N         2.98378200910803    4.55614782555125    3.53746304182479
C         3.84732301578675   10.65810699542426    5.28231413336319
C         3.70731925922266   11.38994491826002    2.21064317844091
H         3.22149587299900   12.07194222761292    2.89565964714981
C         3.79057366231103    5.16678846943033    4.44395839776992
C         4.85967497623369   10.98157085131058    0.14498709231209
H         5.23910095829248   11.34396764980258   -0.79930387059065
N         1.89324942969551    7.66437739699092    2.19349815791722
C         4.03153404101667    2.96110426609767    4.58839922503172
H         4.43172720580431    2.04221784724564    4.96636645513395
C         3.11923346125693    3.19566558288668    3.61400171117902
H         2.56750683890371    2.53269637280867    2.98095915456448
C        -0.69479389948481   10.37807974231352    3.56481542424927
H        -1.30107484574678   11.03454628148911    2.95700903380842
C         4.55922046686753    9.19532074113093    1.71246786558192
H         4.71161719512723    8.15967531776823    2.02163142412990
C         4.19700657461862   11.84740538647415    1.00058562308588
H         4.06841660441058   12.88433027438121    0.72483089507854
C         7.58048218760482    5.08598869354616    6.74319843223337
H         8.59345727579553    5.36083189754709    6.49650841689019
C         0.68312564733220   10.39568080972059    3.43190297863698
H         1.15013437015812   11.05339797394786    2.71423414575146
C         2.23987073056576    5.38649715338936    2.70124788301793
C         0.84587470239087    8.67388476165380    5.10538008329932
H         1.47165673747074    7.99653124727196    5.69924821009540
C         3.53084348012271   12.32422282934773    6.97797849390826
H         2.87213350895430   12.89049739777236    7.62102150032744
C         4.89818898295353   12.53364467114238    7.02951134897361
H         5.30622154445668   13.26383195494028    7.71329587360393
C        -0.52922417018900    8.66600964503356    5.24047170432500
H        -1.00357416549245    7.99198285786659    5.93929742041780
C         7.17590149811902    5.09892008250629    8.06366012483277
H         7.87840733698366    5.37766230818262    8.83505625794788
C         2.70539032539758    5.48412566378967    7.70503954756062
H         3.11505030089211    6.19470335014767    8.41907363430968
H         1.65781371694199    5.30299766473092    7.94047517137498
H         2.76886981019551    5.94328743361763    6.70813089858474
C         1.02978784080762    7.23057795706306    1.24003992931091
C         0.78172931438285    5.84329792794070    1.05215876814290
C         5.38252740185137    4.43664638268269    6.10582818755671
C         7.09807361803596    4.77674391197532    4.27654691699087
H         6.38688669834019    4.17398995451686    3.69840167687517
C        -0.52041552065318    7.73211274975298   -0.52525994501218
H        -1.03553781280187    8.44795454932392   -1.14925878653269
C         3.00144579063673   11.38447924274673    6.11008841144599
H         1.93355551973453   11.21414818034278    6.07878451215451
C         5.22295631641600   10.86446363568231    5.34288350329813
H         5.87251842911235   10.26976421816749    4.71265399130380
C         1.45896378088254    9.54221964155721    4.20234383417729
C        -0.13020450930413    5.43007700164447    0.06695724326067
H        -0.30547486248298    4.37245846002868   -0.05736605068158
C         4.94828725807447    4.44705677002314    7.43191329672144
C        -1.30082348613522    9.51929178584226    4.46650522050235
H        -2.37685410757989    9.50852932720417    4.56138283769731
C         3.49694358100455    4.17187282448956    7.75848847890975
H         3.08845828622076    3.49234984055827    6.99982927312117
C         0.36297052331311    8.16334527621684    0.42773187181774
H         0.56995543542479    9.21067549100621    0.58491537518411
C        -0.76858158605801    6.36363561605526   -0.70528669358801
H        -1.47051900153562    6.04882043468311   -1.46349920646291
C         7.05212459425300    6.21359117527437    3.74236635159436
H         6.03147358437586    6.63145356833769    3.82124863137677
H         7.36197646210166    6.23688140477226    2.69860779795784
H         7.71483984079962    6.84973599534164    4.32436234557268
C         6.68901585648167    4.75314233519250    5.73320257236870
C         5.05283398048465    9.65792469521244    0.50667849929257
H         5.59100216637946    8.99156602141919   -0.15190575497738
C         8.48729178867596    4.17302322854417    4.05875576511290
H         8.67015686421796    4.04435948286742    2.99389702509266
H         8.56383303399637    3.20106624393301    4.54188673809249
H         9.26436047118171    4.82008718954324    4.45581772810701
C         5.87542137417683    4.78177355334940    8.40746768927516
H         5.57779247464013    4.82195712973691    9.44258819520983
C         3.31092728047043    3.49939880474945    9.11904421715163
H         3.51814411177820    4.19196224249511    9.93029748569148
H         3.96803213984847    2.63757471807614    9.21686723362508
H         2.28174357195152    3.16162978840897    9.22327114560973

