101
CSD_code = PAYXUK | q = 0 | S = 0 | Stoichiometry = C38H56N4OSiZn | MND = 3
Zn       -0.38121190725297   14.86147765331033    8.63978905456229
Si        1.96999347480840   12.15429655343564    9.16510998884220
O         1.20016461687014   13.41231108241513    8.75104452498595
N         2.22203360591413   11.73795531729294   10.82789456695976
C         3.59177248140222   10.87456292203494   12.59979706566905
H         2.91514401406098   11.20802172988812   13.36502494911879
H         4.49034178853029   10.38179875272000   12.92408042997795
N         3.48026805950559   11.79149804223949    8.38034648362739
C         3.36795773131546   11.09220796884693   11.29290366887862
N         0.91591140674833   10.71073787215028    8.58257341546905
C         4.34944746525212   10.66854170657629   10.31405044213530
H         5.13523784744943   10.04615604156246   10.71631639634919
N        -1.48659445431818    7.60995785661135    7.22548096436212
C         4.43883697161383   11.02512513113178    9.02012262689085
C         5.59135886745655   10.56467236253813    8.17447192190661
H         6.25042229906781    9.91881374796580    8.74841123945493
H         6.16387499635176   11.41609546559504    7.80924242682082
H         5.22854301313941   10.01881600090733    7.30374610672205
C         1.24660134352895   12.11010006635081   11.79950353089858
C         0.33322285396552   11.15665824298771   12.26327633192374
C        -0.60914908063555   11.52935853700652   13.21195945069713
H        -1.31687667991514   10.80031148955690   13.57747986277253
C        -0.65081430250002   12.81853096765704   13.70201395749536
H        -1.38809110033949   13.09459999934448   14.44173104982737
C         0.26097687056824   13.74932335732550   13.24751795529425
H         0.23312880234919   14.75007624526874   13.64917481520798
C         1.21461274066193   13.41809568633311   12.29428202364541
C         2.22753031338554   14.45066321960145   11.86599040455421
H         2.72713202760791   14.08844062353559   10.96690963366432
C         1.57132286771892   15.78702816578862   11.52420121244993
H         0.80436659825878   15.63694581118101   10.76049503931499
H         2.31431640395189   16.47770100359981   11.13370571086500
H         1.11134113991083   16.24532450612553   12.39603908639104
C         3.27975050893552   14.62302170569663   12.96608520761752
H         2.81727083423526   14.96664048353710   13.88930966183633
H         4.02739528547807   15.35257407457218   12.66193306377971
H         3.77966568342070   13.67678898952020   13.16118430186722
C         0.35719977452943    9.72321186887793   11.78448555019301
H         1.09400061066545    9.63676406119211   10.98293282282546
C        -1.00882780438209    9.30678133725237   11.23306119838776
H        -1.73466893143156    9.20200034094063   12.03541661192453
H        -0.93354776140794    8.34904853746924   10.71886616018968
H        -1.38027814424449   10.05165323403102   10.53230503667979
C         0.78858257664438    8.78040959957728   12.91063856102375
H         1.79093126252792    9.03537049200496   13.24561983591232
H         0.79209524787976    7.75031686734340   12.55778124308882
H         0.11080823293727    8.85307396856662   13.75783016377385
C         3.87847416408722   12.52858194267083    7.22812173267498
C         4.60137820448125   13.71507806961829    7.39226476957640
C         4.99282752113373   14.42245282349926    6.26407264294610
H         5.54956770659637   15.34019135071128    6.37729657375993
C         4.67251352911628   13.97926721018593    4.99660705075799
H         4.98041174706465   14.54427215384973    4.12902086360910
C         3.94668808981766   12.81553145624887    4.84487413690267
H         3.68574359296503   12.47925169200519    3.85282686049227
C         3.54793073947043   12.07473775691101    5.94905539070560
C         2.73992500637677   10.81583348358999    5.74486021370182
H         2.65282958327049   10.30738316245221    6.70828221687883
C         3.40678117104536    9.84705997771171    4.76536097903530
H         3.42630579822334   10.25559022470116    3.75867271448510
H         2.85663592317198    8.90764981451481    4.73807009845331
H         4.43154482347429    9.63789332689749    5.06566065265033
C         1.33559383527192   11.18762120156387    5.26388170865052
H         0.88416553941074   11.90411245597092    5.94640500240803
H         0.70138527694644   10.30335899665548    5.20850831349108
H         1.38196988495644   11.64117721502209    4.27664531654589
C         4.92980653748000   14.26402832539393    8.75898343603555
H         4.57102339830062   13.56588836145690    9.51906563004717
C         4.19939510027387   15.59336679074801    8.95633854905983
H         4.39203810916114   15.97821723111149    9.95517863620411
H         3.12948063281140   15.44658210301474    8.83147491275271
H         4.53518087498975   16.33287519122536    8.23328620490776
C         6.43808332654641   14.43442799637517    8.95613453004715
H         6.95511696001131   13.48613221012454    8.82372182090015
H         6.63979062246375   14.79361239606486    9.96296211316128
H         6.84915537679444   15.15113139295581    8.24929634594522
C        -0.32755396031118   10.94250901154754    8.16632158703694
H        -0.63846589675204   11.97365392464654    8.21612839243516
C        -1.15633210295087    9.95373059084115    7.71051417038314
H        -2.14764686161318   10.22270636270618    7.39205786994361
C         1.36684454339155    9.45413445287753    8.56230106253762
H         2.37702532342264    9.30638893339926    8.91684996060208
C         0.61432676438731    8.40039604843421    8.12142726992414
H         1.04761595588154    7.41543916839372    8.13584778127326
C        -0.70740459951666    8.61558739905510    7.66746870964189
C        -2.84617151306392    7.86865570168064    6.81003043626225
H        -3.42672672097235    8.30718099249724    7.62539577519716
H        -3.32096125982902    6.93625554481995    6.51745030687047
H        -2.87138264510707    8.54889702869616    5.95494031484152
C        -0.98894977512168    6.25447232584029    7.19214138374114
H        -0.09732690612048    6.18127618258419    6.56448602686665
H        -1.74872548119794    5.59801537076944    6.77720755238762
H        -0.74236155846402    5.89951044342386    8.19661934680440
C         0.34347590704925   16.32828752363722    7.40413939004020
H        -0.39279155107618   16.72117920551255    6.70599846710560
H         1.16913260847152   15.94454482955650    6.81077058698090
H         0.72876699995479   17.18102826787899    7.95953653929650
C        -1.84036481081568   13.92012845705284    9.76969190399472
H        -2.37155057465392   14.60905073633391   10.42352858365361
H        -1.38876877414044   13.17018561148219   10.41717578877108
H        -2.60504663884697   13.41161988359938    9.18190561972690

