56
CSD_code = PAYXOD | q = 1 | S = 0 | Stoichiometry = C23H29N2ORu(1+) | MND = 9
Ru       -1.75219008003032   10.07365784270785    8.10194789224483
O        -1.41841014519949    8.97103366488675    9.76418301759644
N        -1.14481755389436   10.24501818200321   10.02684607751078
N        -0.03665947676378    9.19734255529724    7.42490698108908
C        -3.23576714555847    8.87302784148224    7.01450847295188
C        -2.78131820586772    9.92933113206666    6.16106048403068
C        -3.20593437502788   11.17673081327479    6.74136682664067
C        -3.89778275448413   10.88854932990660    7.96337388823801
C        -3.92469409781433    9.46988451215551    8.12404699215516
C        -3.25090573209346    7.41312799705192    6.69232480945747
C        -2.21317283332480    9.78401441223621    4.78280562479940
C        -3.20180854610404   12.48968610128487    6.02798288229385
C        -4.68407827101584   11.89477753285180    8.74596447239945
C        -4.66766743870089    8.68861800232058    9.15915704769971
C        -1.98206307503538   10.86733862391700   11.04678984277023
C         0.10499068564828    7.87673784809097    7.42554190489022
C         1.15404490118209    7.24865306821760    6.78205757584405
C         2.08480624494911    8.02922899462304    6.10560035455314
C         1.94613842803517    9.40267856262348    6.12246909230704
C         0.87085279852995    9.97611492334682    6.80269046451778
C         0.61750991177183   11.39361459186117    6.98187439493589
C         1.46831759077608   12.42457792005171    6.57684674001245
C         1.17123257674803   13.72755236857817    6.90946216422306
C         0.04161260171270   14.03494869668014    7.66677678995265
C        -0.80827771956672   13.00062725014895    8.04999395885258
C        -0.55375571564697   11.68772061454601    7.69937289357500
C        -0.24666350157077   15.45221254012989    8.04069883423625
H        -2.45002037423258    7.14621366012423    6.00645305309207
H        -4.19960052042689    7.16248050802824    6.21383918985666
H        -3.16164679443588    6.80929299251523    7.59316584792500
H        -1.50968098008536   10.58598715291787    4.56395528091195
H        -3.02091598315791    9.83330856280779    4.05106607000889
H        -1.70243567805080    8.83118614773866    4.66082065341779
H        -3.32847854350297   13.32138655997480    6.71450049520356
H        -4.03430083163549   12.50157251914925    5.32211886306062
H        -2.28165128528199   12.63787596824233    5.46745141221720
H        -4.97945095729502   11.51308151079945    9.71997615998464
H        -5.59177410843306   12.14285382974704    8.19368800725563
H        -4.12375964922195   12.81587082084779    8.89210698130047
H        -3.99668027320960    8.02674292871704    9.70835447899742
H        -5.41872874854801    8.06841903072214    8.66912778246634
H        -5.17440851713338    9.33868518476695    9.86824991481330
H        -1.86325151287191   11.94918418083826   11.00211064240442
H        -1.70449040788414   10.51413549704669   12.04388082076960
H        -3.02079286425415   10.59418228486696   10.85571150365553
H        -0.63412762975492    7.31317657276323    7.98147758355841
H         1.24010424104941    6.17514974424438    6.81074490328392
H         2.90860058200735    7.56874780377999    5.58342935442313
H         2.65776810449928   10.03448716867266    5.61742607882915
H         2.36210707128446   12.20449576417602    6.01426695392230
H         1.82760746742533   14.52469534015427    6.59542414162975
H        -1.68778916492101   13.24577256001595    8.63305013766121
H         0.62060804630395   15.90162901286264    8.52070579086243
H        -1.09594321016017   15.52191476214525    8.71502467899363
H        -0.46454220476514   16.03681284086017    7.14755895339138
H        -0.14146434498491   10.37875316813579   10.25206378634243

