38
CSD_code = PAZBAW | q = 0 | S = 0 | Stoichiometry = C16H15N3NiO3 | MND = 4
Ni        1.36986703828009    6.59590165100685    8.08405560282134
O         1.39719098537478    6.61202510672425    6.32405613570180
O         2.67517423315880    2.83689339418992    7.58692546643174
O         1.36187849324229    7.29286319662454    3.82845713875620
N         1.97541076348984    4.88057063139393    8.23469907399147
N         1.35427853088059    6.64186149490215    9.85274063352898
N         0.64852620872384    8.38484944157049    8.21000641780558
C         1.83240303492163    5.70061206436089    5.49311094652955
C         1.82675244829568    6.03270346753151    4.10413515569328
C         2.26504136762483    5.12261966534665    3.16685567457601
C         2.71695598808217    3.86582247313996    3.56486916986397
C         2.72948149666831    3.52625092951497    4.89638516582694
C         2.29731518113639    4.42661541583801    5.86974503375299
C         2.33387658490557    3.97916944877057    7.28324232737387
C         1.99204402854397    4.34946986968650    9.60279504804657
C         1.89691331890188    5.52241159804527   10.58605095545032
C         0.88152191610757    7.70777817061590   10.42338730088588
C         0.45543439168297    8.73148003931949    9.51387752671555
C        -0.09506906008728    9.96716612251019    9.86545376000170
C        -0.44663298269862   10.84942507472541    8.86573853677493
C        -0.24179535704771   10.48244897241247    7.53708670152152
C         0.30680625417826    9.24372560766536    7.25517275857257
C         1.33111597429676    7.70516379976089    2.48751103562491
H         2.26329300481891    5.36939256666472    2.11636059217200
H         3.05537953171986    3.16541052905116    2.81656088325289
H         3.07145403347782    2.55896370568139    5.23159513025335
H         1.14428530929694    3.66432974999513    9.73262056721402
H         2.90926006645417    3.76443189205575    9.74165365723343
H         2.89940247405639    5.79570582788031   10.93795164723933
H         1.27927686512065    5.28445192677207   11.46047365438079
H         0.82423048517479    7.82608302451799   11.50116334918373
H        -0.23625991377887   10.21081742137711   10.90692872102326
H        -0.87424422001822   11.81045620292491    9.10827158601796
H        -0.50601872227551   11.15143477979638    6.73431583482984
H         0.48480265212339    8.91323307777300    6.23871854598821
H         2.33244870135359    7.71016925478282    2.04320474260762
H         0.67242618528548    7.07085911003738    1.88430993186256
H         0.93877270852776    8.72153329503464    2.49711359049352

