87
CSD_code = PAZCUQ | q = 0 | S = 0 | Stoichiometry = C44H34Cl4N4Zn | MND = 4
C        15.13131506257860   -1.38750507262696    5.38762578261897
H        15.15047764721450   -2.30203518697949    4.83072195533553
C        14.35246252622312   -1.01259689580675    6.43762988560588
H        13.59189565957256   -1.53762946758875    6.97790337000693
C        15.70611104182783    0.60854029170172    5.92120276696918
H        16.23664843968701    1.53806539453947    5.93897361196361
C        15.80648884570318    1.68236790834739    1.14358547121824
H        16.73147555206268    2.10237592984885    0.80284404158180
C        14.64956705435097    1.45725503278348    0.46475671096797
H        14.38138096103579    1.63239153113632   -0.55628801893173
C        14.41918975053631    0.83032914306633    2.52859875357451
H        13.98155152288073    0.45982138744607    3.43133981579108
C        14.13152577445229    1.01690885453829    7.86835753198749
C        14.85490668534882    2.34626852118341    8.06833650573362
C        15.42062332664812    2.71691518514655    9.27936697454663
H        15.38774978970348    2.04844102387604   10.12606633332122
C        16.02842932626779    3.95395308810574    9.41771817680699
H        16.47217957651758    4.22336416538175   10.36441034039438
C        16.06707361474334    4.83811339886639    8.35530240771306
H        16.54898883220173    5.79778385490291    8.46385644255978
C        15.46886199108637    4.49087799612787    7.15551159601252
H        15.47406614995896    5.18061634444906    6.32521998314061
C        14.85621593267903    3.25995705111864    7.01705049847821
H        14.36694118156097    3.00987403400866    6.08596594385684
C        12.68681832511184    1.40461897823111    7.54960825715127
C        12.04099588140549    2.26984499392820    8.43169661549283
H        12.56215558504634    2.61404249315133    9.31308919515255
C        10.74819818141983    2.69064925487792    8.18982979333754
H        10.26451198088484    3.35893752194166    8.88632195474901
C        10.07863472877742    2.25993109141536    7.05577085247120
H         9.06901193907055    2.58928113498262    6.86221063377186
C        10.71427739302391    1.40859040436899    6.17254222363585
H        10.20829518605858    1.06566927688470    5.28326117190612
C        12.01162045215807    0.98398628423859    6.41404144964832
H        12.47616813531500    0.32354932382484    5.69687990906201
C        14.22766243752618    0.09169045999405    9.08055796757562
C        13.09585752480924   -0.32890682075114    9.76936043579368
H        12.12527380793055    0.02666758049700    9.46021661256433
C        13.18248417335332   -1.19940693545003   10.84137211452927
H        12.28319029332873   -1.50298117496009   11.35460913198827
C        15.55401103348759   -1.29033609913295   10.56535982150636
H        16.52313643638035   -1.66063431894946   10.85936906647733
C        15.46352851832146   -0.41767306596423    9.49161506531759
C        12.41262363916477    0.50596604512655    1.02914684142271
C        12.39941111343635   -0.52984406475546   -0.09437073289364
C        13.53901228300988   -1.23319265788745   -0.45901128948631
H        14.48811858913593   -1.05223889124846    0.02078964530210
C        13.46525134570626   -2.21782732755811   -1.43090894965300
H        14.36115148240850   -2.75481446323754   -1.70130565562932
C        12.25968171403705   -2.51990375910691   -2.03681046336775
H        12.20752160512219   -3.28651715422575   -2.79525957669272
C        11.11260737322106   -1.84806486764818   -1.64729938549034
H        10.16013608507445   -2.09294615136139   -2.09368826013667
C        11.17978945577953   -0.86881198620756   -0.67479650829328
H        10.27684245071432   -0.36735866144989   -0.35694470707829
C        11.72712190264730    1.82190534830647    0.66869115532357
C        11.39860518696998    2.13563741758245   -0.64571167541794
H        11.59197034041028    1.41332143060345   -1.42349836433263
C        10.83202054775874    3.35229388826449   -0.98105317933493
H        10.58338619398113    3.55842293306069   -2.01052345377285
C        10.59259123865503    4.29870614546472   -0.00131459028407
H        10.14500871278478    5.24784096299491   -0.25173680802567
C        10.94895755769174    4.02932372941226    1.30696054570275
H        10.79503376053693    4.76342930357516    2.08215017046207
C        11.52249515410562    2.81067870166573    1.63334745212054
C        11.74074720493472   -0.25260688977536    2.16733214443729
C        10.42017291613620   -0.00400341018574    2.51745297113616
H         9.86565485214880    0.78316290612313    2.02693387446140
C         9.80110648293935   -0.76032764396975    3.49825758419296
H         8.77173501820277   -0.55765485193571    3.75727741406842
C        10.49280134054463   -1.77328050096760    4.13872044401936
H        10.01236732070491   -2.35288855937889    4.91289095296975
C        11.79594602067968   -2.05279368925534    3.76280503562360
H        12.33551783217579   -2.86046996763930    4.23386213195262
C        12.41165699211200   -1.31526879080739    2.76772701816606
H        13.41210579913759   -1.57758598349227    2.45472363797027
C        14.41484716312416   -1.68023459031022   11.24465401664328
H        14.49250721775656   -2.35979681332595   12.07894428735253
Zn       16.99754735533335   -0.08864458807050    3.30187605207037
Cl       16.19462901500927   -1.78891018401341    2.05966798080266
Cl       18.98865869711116    0.73736128755772    3.56541825789784
Cl       16.94457764224619    0.01339811004911    8.68792518826601
Cl       11.99491242809208    2.57873487497163    3.28867636840252
N        15.97160017280955   -0.36279837574969    5.07898917099971
N        14.72014319211621    0.26618481008086    6.76173942624987
N        15.65071719898959    1.28200840169014    2.43813493219407
N        13.77785214710846    0.89753463034819    1.35846974633164

