45
CSD_code = PAZJIK | q = 0 | S = 0 | Stoichiometry = C18H20I2N4Pd | MND = 4
Pd        0.00092496280906    0.00064054481883   -0.00157697337193
I         0.96693983191279    1.15489227664948   -2.12305109088022
N         2.53040845928058    0.54645712525411    1.49593639067362
N         1.11316322514764    2.17915111505021    1.72060578053886
C         1.30774795010212    0.98070958006608    1.14235998016495
C         2.22047879602444    2.52754858874462    2.46248832694075
C         2.51757079135857    3.63732287860885    3.23612693263697
H         1.81651462118234    4.44893584873003    3.35058203539339
C         3.75286222979860    3.65722469187940    3.85645511011943
H         4.02166167641697    4.50439689553781    4.46846355474900
C         4.66112404366930    2.61010957388813    3.71308430215615
H         5.61337382932575    2.66923742688825    4.21728132112297
C         4.37273376305089    1.49873562946471    2.94314675132537
H         5.07755485488637    0.68939970941671    2.83587711914391
C         3.13733769294072    1.47081537744657    2.31752289894297
C         3.08578201547651   -0.70833016846933    1.06465852248764
H         3.21115944627466   -1.38632102523065    1.91282631554498
H         4.05025623579994   -0.55143583136080    0.57752310347372
H         2.38707129494141   -1.16078311648560    0.34004431760519
C        -0.08959824925316    2.95267837242548    1.56649089787357
H        -0.74653913644441    2.42557622856573    0.85350479953207
H         0.14151186241139    3.94351529984839    1.17034305831779
H        -0.60767813682715    3.05398680574317    2.52322971319336
I        -0.96552528706554   -1.15322399248859    2.12011768880249
N        -2.53027858900027   -0.54557683398988   -1.49743248354093
N        -1.11253462744204   -2.17788839744533   -1.72183798232718
C        -1.30700574397709   -0.97890200861483   -1.14478035361666
C        -2.22056719990475   -2.52772557980206   -2.46190197546667
C        -2.51808908807583   -3.63872965755423   -3.23359745753624
H        -1.81669732959298   -4.45007024343526   -3.34793386107861
C        -3.75427108072265   -3.66024678335950   -3.85207876954911
H        -4.02350289377706   -4.50848947274278   -4.46241387914154
C        -4.66291211777247   -2.61343226571778   -3.70887715079404
H        -5.61590738927726   -2.67388184188925   -4.21152001162904
C        -4.37401975278905   -1.50075681414306   -2.94099344943499
H        -5.07916048689118   -0.69167737793774   -2.83390871805657
C        -3.13777552836491   -1.47125818561095   -2.31711998983363
C        -3.08542456997572    0.70970279776557   -1.06731499853954
H        -3.21159562733952    1.38647945631942   -1.91627374194314
H        -4.04938222106601    0.55340292287428   -0.57935490348507
H        -2.38635294693220    1.16333436162460   -0.34371276014832
C         0.09102917846941   -2.95035320339292   -1.56865539416031
H         0.74797595957233   -2.42267573939152   -0.85611707662433
H        -0.13889184022091   -3.94143506627971   -1.17242203015715
H         0.60852712186025   -3.05105990226900   -2.52579386942484

