73
CSD_code = PAZNAF | q = 1 | S = 0 | Stoichiometry = C36H32N2P2Rh(1+) | MND = 4
Rh        5.68475991562610    3.62276686056949    0.56551382419967
P         7.42244115670763    4.99837276556984    0.93099043310072
P         4.17030170162840    2.21241167157839   -0.30770495375891
N         6.53672682171476    3.41887478901745   -1.22881015804712
N         4.86283693779622    3.80626849305894    2.30398821728619
C         7.40684476334601    4.33980755746009   -1.68295942862254
C         8.03394967684071    4.20907663012789   -2.91324510434008
C         7.74491098854161    3.12080742234275   -3.71706353952380
C         6.83606280729479    2.18681213905442   -3.25203345066808
C         6.25734879946536    2.35357560987369   -2.00266167580811
C         7.67794300389764    5.53757802048735   -0.82540363107752
C         5.29962830874491    1.32697017415736   -1.47704663083090
C         7.55029791891728    6.52252208256841    1.90715914993758
C         6.87919015229833    7.67569466495499    1.50840364208664
C         6.91220657459779    8.80823338101441    2.30043146356719
C         7.59578890082716    8.79314055716803    3.50577000301600
C         8.23471918913813    7.63746098995522    3.92530143887488
C         8.20588094179330    6.50296860971898    3.13576882860014
C         8.98272256603247    4.11911411325381    1.22725076846321
C         8.91297349271942    2.73673385251789    1.36301194932241
C        10.06775101933219    1.99579022841212    1.53458418127367
C        11.29539162968966    2.63699565479746    1.57346263667276
C        11.36919063135947    4.01503305605476    1.43635784005043
C        10.21732377402172    4.75913884031608    1.26079130712164
C         3.12580207255060    0.93722473567430    0.44895469113900
C         2.16616025474383    1.41115557537618    1.34280447930979
C         1.32040087472354    0.53225315853878    1.98960160045066
C         1.43189930126385   -0.82974288784159    1.75378714108870
C         2.38979319667291   -1.30616166446984    0.87467485847964
C         3.24095197493011   -0.42893429448050    0.22373497187945
C         3.03036304519070    3.03508995105712   -1.45874280310277
C         2.06764854735495    2.34149386239264   -2.18289212756285
C         1.25379301429766    3.02509084979663   -3.06752293473791
C         1.39660761994000    4.39447304652755   -3.23050639893410
C         2.35185262114716    5.08910609963051   -2.50542223403431
C         3.16550310799396    4.41032798753164   -1.61780837000694
C         4.26625055399943    4.94277624853220    2.67008827007338
C         3.65231545524137    5.09955059292684    3.89821487296713
C         3.65908414997368    4.04132813138783    4.79506095728461
C         4.28339745460825    2.86252765717847    4.41451294100245
C         4.86719029981043    2.78574390200609    3.16447094302596
H         8.73340001845397    4.96309566840501   -3.23699599969668
H         8.21410326226641    3.00426128921956   -4.68064089688540
H         6.58035803763396    1.32453184521897   -3.84680397887916
H         6.94124393572560    6.31433402648806   -1.05528545010673
H         8.67659795943348    5.94325009078545   -1.00477556313434
H         5.85639806427646    0.58482693383300   -0.89262909942956
H         4.77596766907240    0.81931268148900   -2.29087096281339
H         6.33074162762016    7.69050288500202    0.57627766351488
H         6.40302567169662    9.70421562880371    1.97855168978304
H         7.62593027410714    9.68024059588101    4.11950752309293
H         8.75814072265253    7.62109400790179    4.86910335003990
H         8.69929654969520    5.59836292432836    3.46395606539844
H         7.93499166592507    2.25497879124765    1.33374142085210
H        10.01435765145903    0.92276873412730    1.64262885601657
H        12.19842771613344    2.06276291776736    1.71296347932975
H        12.32852988321485    4.50896847425692    1.46755854318559
H        10.27098881666890    5.83466265221734    1.15877512300221
H         2.08866887654891    2.47889005602977    1.51315977896990
H         0.57428668461593    0.90455827880754    2.67521080077924
H         0.77195784811860   -1.51967645407248    2.25670025944041
H         2.47523497323681   -2.36708674742950    0.69320137099499
H         3.98339744185935   -0.81357932771952   -0.45987856665889
H         1.95389501624956    1.27478451892713   -2.04536960020893
H         0.50387887993232    2.49052895549478   -3.63067416221781
H         0.75705082424128    4.92234145506929   -3.92119176060061
H         2.45462082410082    6.15661393853510   -2.63123039174110
H         3.91750931362093    4.93565632937181   -1.02737525392609
H         4.28560356138340    5.75571522230580    1.95155932447465
H         3.18055388956480    6.03617159192931    4.14800299146056
H         3.19132213643328    4.13283686907724    5.76233814675713
H         4.31397259977645    2.01146494346806    5.07542358553578
H         5.34974238946167    1.87145910923720    2.83329374425405

