105
CSD_code = PAZYUK | q = 0 | S = 0 | Stoichiometry = C47H50N2O3P2W | MND = 6
W         9.45018921292646    0.60287695607543   28.24995214350116
P         7.84352468525645    1.26338877323991   29.94869129360366
C         6.10556180835939    1.60609760881131   29.48429894274908
C         4.95051500430645    1.09820824065576   30.06516684104230
H         5.00144637063960    0.38701922077698   30.87806632532805
C         3.70736493210090    1.51016232630892   29.61029714877874
H         2.81374069471860    1.10906508979699   30.06748750007036
C         3.60614651399497    2.43417097323012   28.58553100093905
H         2.63391966894440    2.75433530750705   28.24073680670627
C         4.75504774126000    2.95036463150272   28.00413134482697
H         4.68052784794239    3.67173767657146   27.20403480460611
C         5.99364364410012    2.53595685488984   28.44977894520570
H         6.90245264598345    2.91880724330369   27.99925214614019
C         8.04205013795903    2.87324727773238   30.80420771531444
C         7.04459492783632    3.39768710754103   31.62223500383940
H         6.12770922330472    2.84843490962321   31.78700197188002
C         7.20655801154260    4.63771691888913   32.21170916684031
H         6.43047046617772    5.03172081640438   32.85237874945056
C         8.35220821673293    5.37890399245722   31.97282073906160
H         8.47305058765474    6.34913211526061   32.43171616028078
C         9.33212660572822    4.87845530241735   31.13206186332415
H        10.21862924184710    5.45931696168886   30.92612489029833
C         9.17781088023725    3.63338459495773   30.54983947622351
H         9.93954397509300    3.24022204256547   29.88980528133149
N         9.48794152856095   -1.57660917436824   30.38739348549775
C         9.22594627272676   -1.17628411410170   32.77050406942389
C         8.87718096311576   -0.98137347615716   31.31729764643252
C         7.67021724887882   -0.07271860022159   31.25845544225629
H         6.83087217525103   -0.66327866179399   30.85806724198678
C         7.47369458296703    0.24472993022797   32.75038986243142
H         6.90011550567038    1.14510379282927   32.95811564586888
C         6.87286156897642   -1.03045477242562   33.36455445554868
H         6.52111061481499   -0.84691315712628   34.37920279774431
H         6.01972551888197   -1.39516017509269   32.78981056286140
C         8.05590361620639   -2.01731176023156   33.33666928527152
H         7.85901125124528   -2.88634875501529   32.71008927162615
H         8.30682859235651   -2.38320575060200   34.33150823147143
C         8.90914090283498    0.23311820437302   33.32380034598945
C         9.83856332112472    1.29053155709857   32.74488944124213
H         9.89200546031197    1.22896265213637   31.65989304267607
H        10.84551027791072    1.14838472669054   33.13147684674514
H         9.50679515493016    2.28759123571146   33.02603031315031
C         8.95935212745855    0.36654838569800   34.84444575485507
H         8.42163585109550   -0.41787204774054   35.36499160721799
H         8.53187931842817    1.32465868724077   35.13463831974720
H         9.99339980930465    0.34576087546777   35.18067197712798
C        10.59892883942150   -1.76194450091273   33.01943772679031
H        10.80872900051886   -1.80236458565837   34.08560231935915
H        11.35837034771625   -1.16174780402258   32.52656141502733
H        10.65013606368588   -2.76909813954626   32.61348166406466
P         8.00944458643177   -0.43306465285403   26.52066407837775
C         8.75811431011564   -0.00453064592915   24.91425122990596
C         8.55772924460590    1.32110924563204   24.53517669799737
H         7.97397561150705    1.96544141010315   25.18127178071970
C         9.09909370032277    1.80933537691180   23.36333192642306
H         8.94547642332506    2.84161134765304   23.08573800161378
C         9.84872417018929    0.97334700344586   22.55085797383175
H        10.28397079460207    1.35199982952269   21.63789619965362
C        10.03894238065249   -0.34867567190179   22.91157021906085
H        10.61810996160168   -1.00412664669869   22.27690094653484
C         9.49392057700481   -0.84131331638304   24.08530723570539
H         9.65161927912825   -1.88042191329684   24.33996187860790
C         6.30339157501085   -0.66806725844275   25.86640337996288
C         5.20828866065771   -0.22949672907806   26.59905824932114
H         5.36560863443763    0.22541406729098   27.56373621585191
C         3.92455682511903   -0.37585980486979   26.10537791082939
H         3.08497403522892   -0.02346634307689   26.68677613253361
C         3.72192547411602   -0.97073931687244   24.87230250824877
H         2.72100017809797   -1.08935506200908   24.48397984355089
C         4.80913913472512   -1.40798120357838   24.13202402455385
H         4.65486839606257   -1.86756615660500   23.16622305022501
C         6.09309706796710   -1.25025716265172   24.61879920563321
H         6.93583072272165   -1.56861866224910   24.02114314379624
N         9.20529341398276   -1.40116810799662   29.08206460621873
C         8.42903652303968   -3.79238402746004   28.62898459916758
C         8.82619103437400   -2.36196763177691   28.33383007536333
C         8.64305489890471   -2.16459245520837   26.85883732098664
H         9.64731527137106   -2.08971188035049   26.41515588823125
C         7.94719311738517   -3.46935111306768   26.44330780793033
H         7.34819666779677   -3.40387674035995   25.53649510198106
C         9.07223863272673   -4.51259581828849   26.38816874678630
H         9.90447805329397   -4.18041234697916   25.76731907471538
H         8.71480842643076   -5.45483898345348   25.97415161576214
C         9.47234277729540   -4.65112037429831   27.86974638574083
H        10.48066716377835   -4.28302079284203   28.05939986365157
H         9.43037436223071   -5.68591900526706   28.20874706764388
C         7.17842107338046   -3.89271574425534   27.71489767161730
C         6.08029907539141   -2.92042254653731   28.13516277694662
H         5.29832941214237   -2.88270024851121   27.37988232569059
H         6.46464157955361   -1.91164557465040   28.28225915000249
H         5.62949176117353   -3.24855457883355   29.07080447425303
C         6.55330982342035   -5.28297367835704   27.62222800923385
H         7.28980002169355   -6.07066005784800   27.51002344125957
H         5.87730578569385   -5.32010287751213   26.76989490509501
H         5.97417295556517   -5.49169580833176   28.51933646063289
C         8.25825999692540   -4.18817379176519   30.08086093207697
H         9.19076457117374   -4.04842318489510   30.62238134385086
H         7.96795231343878   -5.23498270931386   30.14898833893677
H         7.48648643828362   -3.58525232633315   30.55459719158281
C         9.57686531331546    2.38464224340016   27.44088951193597
O         9.69747616415856    3.42194338430583   26.95100827341011
C        10.96728497832593    1.02749005761299   29.41603741419474
O        11.95180768826887    1.21896229421264   29.98140456121027
C        10.86878919313973    0.07731375283868   26.99586496294719
O        11.76636080960543   -0.13442457664669   26.30651323424555

