55
CSD_code = PBPZMO | q = 0 | S = 0 | Stoichiometry = C24H23BMoN4O2 | MND = 7
B         1.00828204966835    4.94992577073027    2.81329362922528
C        -1.12298362540422    6.55481465724046    2.75974424951235
C         2.19516185904595    5.23506814122431    5.15337538738358
C         0.95442786219238    3.51061483549640    2.06157154332999
C        -0.02950895267626    3.18541030003714    1.10170493270967
C         0.14410893084180    2.10810621203961    0.22304919742664
C         1.25948853668815    1.30897683452693    0.31003398887493
C         2.23015807032239    1.58350402810352    1.27553500388773
C         2.07633580759855    2.65274378986262    2.12693707963801
C        -0.20874261997673    0.24328862320050    3.17333643850732
C         0.27205910085904    0.70366490792982    4.41700307677516
C        -0.84359175803413    0.94446262812715    5.38541503509746
C         1.67448623344702    0.45142425996446    4.89830818343310
C        -2.45292751779003    6.34382194920696    3.08057477440724
C         2.06808548363589    4.58565295291393    6.36444778269761
C        -2.00079965851373    1.73147701116421    2.45193723239046
C        -1.84367237690443    2.26426433915043    5.10528722886425
C        -2.51852212126453    5.00462536834430    3.45153921628150
C         1.15881698369536    3.56123961789549    6.11354339676017
C         1.94708475348007    6.06236485822652    2.13527208376543
C         2.68696954619686    5.79474737872264    0.98602703170270
C         3.49780735210538    6.75389763838024    0.40428433902648
C         3.58872215993768    8.01745173814472    0.96065694683503
C         2.85991642726038    8.31090926482801    2.10014895728904
C         2.05255458153493    7.34507376883359    2.67445554162876
H        -0.62943400282978    7.43762032395590    2.40631722403578
H        -0.81359924422265    3.90512988444509    0.86769546535644
H        -0.59701365617473    1.92359985026050   -0.54196400698079
H         1.40055720260168    0.48860810351663   -0.37837476936518
H         3.11959197649647    0.97009730923844    1.32788414083386
H         2.87405303754254    2.89960015051767    2.81859077517479
H        -1.09088067566221   -0.39428025727250    3.15047676899800
H         0.53019383810207   -0.04631685179155    2.43173796983579
H        -0.48217633011243    1.10513161691459    6.40484646115789
H        -1.57643500392649    0.12600993043106    5.37959570676403
H         2.35428418832980    0.39095717342289    4.04965126462133
H         1.71530522868665   -0.50218464325633    5.43121813512127
H         2.02836111029497    1.22932838129191    5.57389629305986
H        -3.25203721581357    7.05521978730055    3.04741913968883
H         2.80018949277586    6.07471124283459    4.87860667023684
H         2.55530336990353    4.81634775096223    7.28934714438442
H         0.76978613974214    2.84627414351211    6.81329074184258
H        -3.35937969680340    4.42395656707601    3.78168861850076
H         2.62586264859319    4.81322422730802    0.53702392730528
H         4.06059168327869    6.51452953758529   -0.48678825763588
H         4.22114840546808    8.76871382207759    0.51023177845304
H         2.92118950269623    9.29545369602063    2.54263098319253
H         1.49110758857188    7.59612992150465    3.56471635376972
Mo       -0.62957669378711    2.47393976436279    3.58741046169705
N        -1.31026505670329    4.46186325546524    3.35500211210085
N         0.78265209630738    3.58596863285465    4.84084754057042
N        -0.46726406854921    5.40657604529884    2.94170102627364
N         1.40759294368967    4.61638215338035    4.26768227180095
O        -2.82328562758721    1.25776975388282    1.80556818356898
O        -2.75414028885680    2.48520785260812    5.82226759819431

