39
CSD_code = PBTUCU | q = 1 | S = 0 | Stoichiometry = C14H16CuN6S2(1+) | MND = 4
Cu        3.40679344809843   -0.37305721589424    2.54682484413051
S         1.37178063889458   -1.41235201282412    3.11265682326739
C         0.23844333202301   -0.18726804428050    2.88390716484771
N         0.60386398946965    1.08213975056022    2.70738016017926
H        -0.07550953806131    1.82223837716694    2.63237279005597
H         1.58645103859767    1.32612346540309    2.80259818359879
N        -1.05753292932982   -0.50594856645955    2.87657990800100
H        -1.78013920212130    0.18024468789416    2.73442722574713
H        -1.31855804968857   -1.47152648198511    2.98306958045460
N         3.72757370861083   -0.14668524004986    0.56375590706553
C         3.11199108244118    0.58711695523963   -0.33913930063911
H         2.27125461908708    1.17205727102443    0.00822951055729
C         3.50221795182014    0.62646675099605   -1.67844487812389
H         2.96277528968959    1.24696805570478   -2.37553586004338
C         4.57424538187038   -0.13412738271857   -2.08394925352890
H         4.90383889172417   -0.13126019559071   -3.11208956318686
C         5.24956628631986   -0.92665376363853   -1.14119711443196
C         6.36615904327736   -1.74638712658443   -1.47449567300749
H         6.70322612908768   -1.75366590930298   -2.49996565402267
C         4.78350199604360   -0.89563982229251    0.19140183012870
S         3.77472473905638    1.58028575661605    3.81088730954329
C         3.67050911462381    1.03266241869568    5.40037107452479
N         3.19394450093381   -0.17626075386967    5.69588165557104
H         3.07595311811384   -0.47982565489099    6.64919434180464
H         2.80445551002393   -0.74500027207753    4.94828268191266
N         4.08165745473377    1.83617041706606    6.38356037549938
H         4.05410778920552    1.56064581361277    7.35130964559291
H         4.46446209438079    2.73520639094447    6.14481859802258
N         4.99108501849024   -1.62676042751930    2.45569917956745
C         5.58457565622797   -2.34866263665239    3.38258013213595
H         5.18201004473510   -2.27175069589344    4.38342477189926
C         6.67521487905176   -3.17742517625392    3.11542136095603
H         7.12183476845307   -3.74872015292840    3.91298929706492
C         7.16125938879029   -3.24754800154977    1.83053299598204
H         8.00489442984130   -3.87543796796219    1.58608502383422
C         6.54685095201941   -2.48756987921091    0.82160125982290
C         6.98680233376187   -2.49724928000590   -0.53345105392444
H         7.83083574292016   -3.11965245967392   -0.78935308187424
C         5.44587935673986   -1.68329099050153    1.18897780105747

