37
CSD_code = PBUXNI | q = 1 | S = 0 | Stoichiometry = C11H19N4NiO2(1+) | MND = 4
C         1.26648566845805   10.43919280798597    5.36288100383881
C         2.58910139133805   10.98719039868509    5.57142643385030
C         4.22652380416143   11.62968206749564    7.19831206271901
C         4.19068375755637   12.11276811096354    8.64931858496069
C         4.06664001114345   10.97846980924185    9.66827093790711
C         2.30099138088638    9.65860649761458   10.56771478434234
C         0.95052383045545    9.11207674321593   10.37253354513697
C         0.58690598377868   10.34015871566802    4.03839004685439
C         3.42951114811563   11.44455191240448    4.43292273689774
C         3.03048581193781    9.43041553253460   11.84349760283475
C         0.18836345414362    8.43555881337465   11.45437368628218
N         0.68183685640947   10.05072426227172    6.46956905754754
N         2.95758240073620   11.05657455287459    6.81529336128515
N         2.77582339241583   10.33951946851464    9.58024564084931
N         0.47571743315960    9.29167402380560    9.18220986333976
O        -0.48901450887482    9.57180995883862    6.50013819865937
O        -0.75391505573204    8.84407293304708    8.90497814777482
Ni        1.67824206532005   10.22799890924361    7.99237327511683
H         3.34425574926826   12.79347156615506    8.77365847582441
H         4.85069294005435   10.23054869779581    9.49125024087140
H         4.21417938318863   11.39449720160356   10.67106578954124
H         0.55644814695706   11.31024164902351    3.54609534307125
H        -0.43112112370646    9.98703162218071    4.18529118464282
H         1.10706377858130    9.63677181013952    3.38953133871083
H         3.52022471210430   12.53161050558243    4.44956546235414
H         2.99628521353628   11.15241848798994    3.48281801154932
H         4.43315054600914   11.02899004377757    4.50928080048292
H         4.04775268926528    9.09665422968742   11.64266817154323
H         3.09814864599980   10.36294978086458   12.40647445532965
H         2.53443280840815    8.69250183133996   12.46346888902382
H         0.21040351481970    9.02384975776710   12.36920196413615
H        -0.84399505268011    8.29702968580970   11.14270784565809
H         0.61574077358225    7.45544914465727   11.66488293898005
H        -0.90806040330265    9.05574141224679    7.91253338287855
H         5.01785842020756   10.87895975742865    7.07315735113384
H         4.46069436460293   12.48516474690328    6.55539632314371
H         5.10655606769608   12.66597255126553    8.85570306092475

