70
CSD_code = PCPCOS | q = 0 | S = 0 | Stoichiometry = C38H21N9OOs | MND = 6
Os        2.04317225255595    1.72850746338351    1.99566578027702
N         5.19413514730840    1.79586211224403    0.84020967251845
N         2.98204743607034    2.68122406154480    0.51356946385129
N         1.14119038810327    3.96427074598439   -0.34740796083663
N         0.35504504733112    2.68807324962855    1.53109891111924
N        -1.06441313983969    1.80990548058466    3.26255137081765
N         1.14387682904867    0.91186740467414    3.58045613458142
N         3.02226728362703   -0.24223365361375    4.53714952298321
N         3.77171630618002    0.90588284399535    2.56314142027649
C         4.29986022734391    2.53115094460073    0.20764109408699
C         4.60169077197510    3.36620860606987   -0.94113294117607
C         5.76399157038722    3.58826866054892   -1.65993226411992
C         5.70513497753404    4.46733412531139   -2.72830864054126
C         4.51856458740854    5.11036405496404   -3.07111744812710
C         3.35149944573159    4.89569669368881   -2.35713926188954
C         3.39989402046608    4.01751583714133   -1.28791929110185
C         2.39560191925760    3.55979191382514   -0.34401448850393
C         0.21434160052039    3.56497202064674    0.50029026536252
C        -1.16214176391942    4.02751660869616    0.47755224801803
C        -1.84356980205044    4.90603434393035   -0.34746871193793
C        -3.18649960236612    5.12549824810015   -0.09000567842664
C        -3.83511652071350    4.48687688715625    0.96374658489877
C        -3.16207395124996    3.60747434560391    1.79516449698372
C        -1.81947485217276    3.38063480229162    1.54442255128916
C        -0.82588975279286    2.54328680986820    2.19216807542820
C        -0.17038357136588    1.07420992238858    3.89502039537889
C        -0.44812966635033    0.32237642044171    5.10548322006345
C        -1.60001922231856    0.13777435353013    5.85113633096401
C        -1.51742335285331   -0.65779104237244    6.98150207174432
C        -0.31705463296571   -1.25328595134385    7.36037205084755
C         0.84039786178574   -1.07316852976234    6.62166462203088
C         0.76784874600691   -0.28016256899726    5.48909014705808
C         1.75450313472007    0.11649044492177    4.50002319505363
C         3.93616586925520    0.11244323125111    3.65605490232571
C         5.33037399333682   -0.28796321700661    3.72508546153878
C         6.03599133164243   -1.08070058452226    4.61417300211469
C         7.38891570363228   -1.26509697112476    4.38315499944793
C         8.02412921303491   -0.67406060566973    3.29402501870669
C         7.32732888042311    0.12107394447621    2.39972394265501
C         5.97385497835980    0.31009999493693    2.62187361207627
C         4.95618671083638    1.06318627955677    1.91126039022344
N         2.55557498499610    3.43824221116083    3.30661360350484
C         3.78611177397210    3.95220366537649    3.32384833317462
C         4.16943473280041    4.97325971871404    4.17556678224970
C         3.23877624253572    5.49756942693272    5.05758727537697
C         1.95625486260780    4.97425219509409    5.03785018046955
C         1.66142201818187    3.95334848410268    4.15145240543005
C         1.61402838429808    0.27649826407764    0.90024425777658
O         1.35213208871886   -0.61968539425825    0.22925422965941
H         6.67832475993190    3.08412901696422   -1.38951857312484
H         6.59479193206003    4.65876563962769   -3.31042710104548
H         4.51148435612236    5.78812150291188   -3.91230634882618
H         2.42813703251905    5.38837963766219   -2.61744703522139
H        -1.33475942804504    5.39537512843538   -1.16279447902044
H        -3.74550405645169    5.80353581661583   -0.71831201398102
H        -4.88425255484155    4.68194093803878    1.13186170720723
H        -3.65745296457751    3.10657415733568    2.61186192340639
H        -2.52612552653693    0.60089999151408    5.54924383220729
H        -2.39976685288746   -0.82301210368840    7.58245752256603
H        -0.29219784389877   -1.86855091707191    8.24797016590897
H         1.77342297078752   -1.53218243448083    6.90780560878308
H         5.53638322918232   -1.53603737232947    5.45451472368912
H         7.96570374005034   -1.88020872049568    5.05839228143889
H         9.08087003311026   -0.84248631255871    3.14595122920499
H         7.81126141779669    0.58061731119327    1.55241667471928
H         4.50604022275476    3.53797577297458    2.63102645468780
H         5.18159797605157    5.34396885033440    4.14304907888174
H         3.50458993360032    6.29153434080048    5.73888643309812
H         1.18918885913645    5.34557004874808    5.69864175541464
H         0.66209127309930    3.54009140469481    4.12818482430456

