24
CSD_code = PCTHFC | q = 0 | S = 0 | Stoichiometry = C9H8CrO6 | MND = 6
Cr        2.11555409720362    1.70585847150405    1.46311290664345
C         3.19767636049617    2.73556107708046    0.39106485753917
O         3.87851555240487    3.38349155097185   -0.27701731314341
C         1.65311472883708    3.27709347626021    2.36054850833504
O         1.48582519385055    4.32791508557347    2.79582891402704
C         3.57817092573539    1.49904740550878    2.60559706195437
O         4.56771651177392    1.47692864192693    3.18969262695465
C         2.68205033525190    0.22148144396576    0.47911485537957
O         3.13914981923518   -0.57161660839745   -0.21523923139714
C         0.73657706019768    2.00404867562501    0.23764960347723
O         0.00887391192454    2.29320209555679   -0.60266590016035
O         0.77474915152694    0.42757309197388    2.77518319749918
C         1.23038429043088   -0.68413500769520    3.54427770815217
C        -0.02231704234975   -1.31284040641530    4.14605992710806
C        -0.55219468579860    0.78178043175964    3.17235286831088
C        -0.88415316241023   -0.07649017371175    4.39229632236661
H         1.90769422941738   -0.32658092024334    4.33324970109853
H         1.78006288839890   -1.35644170550828    2.87947959108430
H         0.18889657493636   -1.87409162932077    5.05241583834458
H        -0.50175315218756   -1.97200645438809    3.42184874345797
H        -1.94513006836103   -0.30217275852211    4.46068912112753
H        -0.56973697874373    0.42534146353253    5.30782979060338
H        -0.58532780792506    1.85512706591593    3.38518679553691
H        -1.23009873384540    0.56442568704700    2.33594350570035

