24
CSD_code = PDMPDA | q = 0 | S = 0 | Stoichiometry = C5H14Cl2N2Pd | MND = 4
Pd        7.00186213590870    4.72870383671134    9.04064253056467
Cl        6.24500474423712    2.78973278913443    9.80435926038454
Cl        8.94609203972995    3.85070146176460    8.41959344397409
N         7.64678062572940    6.64361543509684    8.36970910326795
N         5.23471821544252    5.79217019295530    9.59969393057483
C         6.83409209107683    7.63655803630742    9.07905050502704
C         5.37353233490351    7.15164086619690    9.05743761729260
C         6.95808958074443    9.02819506746643    8.45738135894023
C         5.20929540891050    5.79748662700437   11.06188853955474
C         4.02256088144558    5.15220678432171    9.09266914288996
H         8.64648356284016    6.74525666480317    8.54713092325992
H         7.50330401109730    6.69957910556130    7.35957789825059
H         7.19245200103662    7.67514595780242   10.11546207897984
H         4.73609557773367    7.85512956816749    9.61262827515380
H         5.03981239438216    7.13950015368668    8.01418826518676
H         6.37166343147961    9.75166414737226    9.01691614410056
H         6.60319945898625    9.02110390313973    7.42830858853244
H         7.99572233289986    9.35404940772742    8.46338373438618
H         5.13247866290876    4.76672649637665   11.41245896569128
H         4.35447563117364    6.37509441520349   11.43914961811401
H         6.13255050881528    6.22693950675590   11.45858620841386
H         4.06616821271569    5.08696715560956    8.00343728760770
H         3.12498526646366    5.71069592529380    9.38808361236702
H         3.97078088933893    4.13893649554122    9.49236296748497

