19
CSD_code = PDTCNI | q = 0 | S = 0 | Stoichiometry = C8H4N2NiS4 | MND = 4
C         1.76631839591681    3.37087092696887   -6.36909653893811
C         2.12558383944562    4.38229770528489   -8.52883715688257
C         1.93829278806043    4.36791162661742   -9.86193939050979
C         1.72002697149177    4.37532923280953  -11.10278235441366
H         1.11087469276546    2.66294657944443   -8.15676495819249
H         2.67700686373651    5.17433226952517   -8.03023945625954
Ni        1.91686218038535    3.27761421924621   -3.76725051364428
N         1.63322198397082    3.41963582522464   -7.71947406400535
S         1.09194908279392    2.09902927462183   -5.48002282277149
S         2.59775815664189    4.54024411162807   -5.47096313832343
C         2.04778191877770    3.21041617836412   -1.16281624731426
C         2.75051850905945    4.02042783711868    0.99733654101871
C         2.79132398488209    3.87172731445164    2.33439179956009
C         2.85470056482468    3.71284176830084    3.58283063975569
H         1.67391300707143    2.33756417660939    0.63310971093940
H         3.22165204138091    4.85957952282560    0.49370630221173
N         2.12600389889183    3.13544764754998    0.19070430672905
S         1.22962225383492    2.02271572209422   -2.04767276896425
S         2.73878886606339    4.46176806131444   -2.06921989000259

