67
CSD_code = PEBDEF | q = 0 | S = 0 | Stoichiometry = C23H32BIMoN8O | MND = 6
Mo        4.56321657289561   20.62962358652965   30.53747063138614
I         6.65764797591329   20.43424691694641   32.34487988222200
O         4.48850313602272   23.55381444353631   30.62502093417796
N         4.53968921353280   22.35925549245814   30.58325552704095
N         4.56034720033453   18.41793415068317   30.46023303907287
N         4.70857706745579   17.80844491110816   29.26438713646850
N         3.31911163126617   20.46191599670422   28.80595408611299
N         3.54156652431677   19.50741314317336   27.88260048830497
N         6.05290139796071   20.54663637844694   28.92571652451537
N         6.00065297473672   19.54522567221985   28.02119724805060
N         3.09009187307203   20.45126715680145   31.73219832830626
B         4.78807778818430   18.61017045089700   27.96382734165231
C         4.39818924009419   17.66745963442851   32.85955318214185
C         4.52516846100572   17.46093385086547   31.39026804813433
C         4.65148997466702   16.21215662129466   30.77375167397228
C         4.76933606082046   16.47176781971292   29.42393318015359
C         4.94062114578530   15.50156853395281   28.31203292999291
C         1.64722086186633   22.25702294792838   29.22066138753412
C         2.22052757237842   21.12904288487645   28.44760594112491
C         1.72413882224039   20.58034652977684   27.26477164817006
C         2.59277781945809   19.55559520384233   26.93197390226170
C         2.53992430701000   18.64665124788175   25.75832944439230
C         7.57878838312973   22.46062507468518   29.43711605547196
C         7.15084771004960   21.26381816182754   28.66995920159622
C         7.82013973562105   20.69946785009279   27.58132524737395
C         7.05949060388865   19.61288683393839   27.19322908234932
C         7.31186996873632   18.65911251998336   26.08254639461576
C         2.48154881162085   21.39851235424799   32.63577638213924
C         2.88696874757409   21.09215892714632   34.09142676650596
C         0.96818568243360   21.43264598210263   32.55347671536651
C         0.31085458337537   22.65551922926796   32.47218898522685
C        -1.07008877345592   22.71402479583717   32.41866597926774
C        -1.81638029664630   21.54794303840523   32.44331371839900
C        -1.17274649638295   20.32588379300402   32.52983648686679
C         0.20876875571283   20.26907560121514   32.58969289682569
H         2.61636631936509   19.55418750524242   31.86774675198673
H         4.84945373285348   17.89422114674860   27.03085698927466
H         3.59909926917120   17.03785309578132   33.25164735248107
H         4.20162331613723   18.70371837813196   33.11668952557054
H         5.32699322109056   17.36983021267494   33.34690434937482
H         4.66232715766811   15.25643826840425   31.25637125122643
H         4.95432203059884   14.49263660960976   28.71548639346034
H         5.87589047237796   15.68107737329756   27.78466456003065
H         4.12607998259930   15.58318646783527   27.59423166171064
H         0.91798702493442   22.78529410044107   28.61159199427640
H         2.42412210279521   22.95331793096229   29.52658157716742
H         1.14650419242329   21.88810948989028   30.11617125148799
H         0.85438741449170   20.89287026485337   26.72409507588434
H         1.65922481094473   18.87501723918907   25.16447044099237
H         2.49154925813343   17.60692737818705   26.07690303010523
H         3.42488876828293   18.76879599196752   25.13629039427748
H         8.15215319965211   23.12015006935995   28.78938412130240
H         8.21603428465373   22.16770755051700   30.27266968224318
H         6.72666371436343   23.00567865149620   29.83507659338474
H         8.73402594672346   21.04131313901550   27.14057825984575
H         8.24908334742476   18.91367939980350   25.59543534546217
H         6.51044885904110   18.70010353293111   25.34657265838562
H         7.37556883060848   17.63921271763416   26.45766829332462
H         2.87543520506607   22.39086500156132   32.38139843163768
H         2.48089507374765   21.85277757951520   34.75331293417990
H         3.97246269341281   21.09531361111095   34.18060734801349
H         2.50020763946936   20.12229093748443   34.40188622426401
H         0.89120224496947   23.56644398847042   32.44648994251353
H        -1.56429728817113   23.67218090302669   32.35580761570903
H        -2.89444359558175   21.59082289366126   32.39850822683224
H        -1.74796489635358   19.41168650586951   32.55600169102055
H         0.68988063036512   19.30312432942794   32.67082361535364

