89
CSD_code = PEBGOU | q = 0 | S = 0 | Stoichiometry = C45H37N3OP2Pd | MND = 4
N        13.58057833630986    0.92409231491665    1.66288365156802
O        15.52409388220304    3.25457001350331    0.75386689798132
P        12.55457636844908    3.76233864794019    0.93364472867327
Pd       13.78018702163232    2.81315670809058    2.55077104657884
C        14.92286557527154    3.22194142591735   -0.48539814269869
C        13.54055597923864    3.44149949663553   -0.57416755347523
N        14.20698516656527    0.59407650355108    0.73222971724397
P        15.67281341003031    2.19351318143619    3.57746300310040
N        14.77891756279277    0.19992437572438   -0.17274347468894
C        12.93065938942055    3.35919695659913   -1.82138495617702
H        11.86381952759952    3.50831503518022   -1.89863321069564
C        13.67279923830582    3.06377123282337   -2.94656838098907
H        13.18661926173205    2.98418884512637   -3.90705016958618
C        15.03995640478698    2.87044255408969   -2.84847645309369
H        15.59955025556021    2.64433818925045   -3.74066900694508
C        15.68435676409153    2.96210452741890   -1.62570401508906
C        17.18546909845515    2.85509186886055   -1.44344976290619
C        17.73758233052285    4.28421895559770   -1.25307832382530
H        17.26673662172254    4.77596549265759   -0.40430565453140
H        17.54673785889394    4.87853804739983   -2.14450756635850
H        18.81102730868680    4.24830655417938   -1.07803066273783
C        17.87983129830147    2.21332061255219   -2.64223380246609
H        18.95444006274925    2.18079017650096   -2.48191842967579
H        17.70691853363439    2.80429802641475   -3.53801636288758
H        17.50955797167164    1.20373473540646   -2.80090422422002
C        17.42179173981557    2.09365064402704   -0.15408043474349
C        18.43931630357416    1.17195088177379    0.03037721515772
H        19.08468227224995    0.90552362054068   -0.78988124286254
C        18.64375874559351    0.57748769745091    1.26365507316011
H        19.43912921732855   -0.14166888298872    1.38794456388306
C        17.83529317320346    0.90230699099243    2.33369323930208
H        17.99396071797234    0.43668032174138    3.29519843143002
C        16.79268810540113    1.81019793635082    2.18161558242459
C        16.58357652889989    2.38983377516058    0.92179793595537
C        15.77548994448298    0.73885507200753    4.65812325308037
C        14.74123245570607   -0.18794269090581    4.57277256686740
H        13.93069737171096   -0.00868422393322    3.87237387949800
C        14.75376308762196   -1.31581909097503    5.37301928118941
H        13.95262654492941   -2.03680121234350    5.30323220176625
C        15.79153311606275   -1.51608322795831    6.26878397811169
H        15.80189689824673   -2.39522738816580    6.89633108470410
C        16.81362956943222   -0.58505426788087    6.36968646748221
H        17.61659012861142   -0.73859093083921    7.07627981677996
C        16.80922117651007    0.54292877263586    5.56972468375608
H        17.59888831235947    1.27752316275298    5.65655668703149
C        16.59224785851034    3.45974331220723    4.50379344180510
C        17.66858895412227    4.15837816552626    3.97265403002697
H        18.05502070976124    3.89318653212968    2.99763749467605
C        18.24314569558381    5.19177779360111    4.69267096654586
H        19.08087640918936    5.73341049176624    4.27725635589598
C        17.74431740699393    5.53673839291137    5.93665517189008
H        18.19079822588147    6.34902517086348    6.49104939646953
C        16.66772354605561    4.84390567991143    6.46940748390284
H        16.27384880069179    5.11645281166381    7.43734092941875
C        16.09176766182231    3.81344518668685    5.75509887387373
H        15.24073553573891    3.27488055138774    6.15305734188472
C        13.79961626229070    4.53324546237762    3.54708155503913
C        14.59797806869810    5.63061433518378    3.25609000838260
H        15.29084767451626    5.59293171216036    2.41966979186796
C        14.51932601026046    6.77828039522183    4.02719017431963
H        15.14548320671226    7.62861713187555    3.79356543850898
C        13.64152223329009    6.83778759924951    5.09551842123168
H        13.58074116159446    7.73378103932545    5.69703840502941
C        12.84094117165820    5.74792725438557    5.39270269066262
H        12.15381078914482    5.79370938618636    6.22710784498187
C        12.92026522106171    4.59977448907655    4.62035240492530
H        12.28617443462020    3.74251647231017    4.85724453573697
C        12.39334268916824    5.57349567906814    0.94096275460893
C        11.49981202708174    6.12379547580563    1.85744382542073
H        10.88959556616588    5.46262529014905    2.46005486732680
C        11.40472822267802    7.49284272154270    2.00091017625326
H        10.71278718463503    7.91431408097580    2.71498080438025
C        12.20779798085071    8.32526860703186    1.23610132449075
H        12.13997865393286    9.39682125645390    1.35307769676101
C        13.10002225045456    7.78368630491932    0.32723006117686
H        13.72722898642587    8.43293814271576   -0.26674172420324
C        13.19844616152342    6.41078202707194    0.17969674128122
H        13.90040146341144    5.98750169806346   -0.52630943078651
C        10.88008201637002    3.20370604896545    0.51273806373374
C         9.98741080477239    3.97472562890153   -0.22653728359088
H        10.28130509297001    4.95627175310159   -0.57434720678672
C         8.72319137685781    3.48601227733230   -0.50071566239583
H         8.03051948516032    4.08267791787539   -1.07669792483647
C         8.34287586790563    2.23598653742034   -0.03761589354023
H         7.35407290148188    1.86022861514981   -0.25640632999077
C         9.22385966861448    1.47370875766163    0.71230143144372
H         8.92172076200752    0.50474179457188    1.08146461864384
C        10.48865601035808    1.95774309262742    0.99259114883339
H        11.19028715060390    1.37909548940736    1.58651202859783

