46
CSD_code = PEBHOW | q = 0 | S = 0 | Stoichiometry = C21H20Cl2N2Ni | MND = 4
Ni        6.32824400983113    1.87792552095976    2.69305584764701
Cl        5.36582262342696    1.84047822140117    0.87225411436127
Cl        7.19578259392290    2.63320026180591    4.42031725876677
N         5.21338118973864    0.04599077936596    3.70698213736691
N         7.87592061415157    1.12656730760567    2.09606376553726
C         3.92676802299303   -0.24364941605371    3.02952716643546
H         4.13480382140100   -0.59122697352257    2.01733786601564
H         3.38665386269997    0.70459845891277    2.94776770179060
C         3.78971988919226    1.08486463412280    5.45746853639930
C         2.33440801392746   -0.83099478753331    4.87363145004555
C         4.97733129875044    0.21350595456227    5.15907008294463
H         5.87564796739954    0.65654179955437    5.59501309308664
H         4.81012499132791   -0.77507752204085    5.61702027357146
C         3.05837249461201   -1.24089334180341    3.74736014110321
C         6.80621424458642   -1.07615625003662    2.12086975568199
H         7.08350902941636   -2.10009850904703    1.87002487609600
H         6.07652851749188   -0.72023348988709    1.38747703362004
C         2.50157186913221    0.54408867948810    5.36496850146867
C         2.92034550053987   -2.54166623266838    3.28622167348507
H         3.46597754501252   -2.85660999426040    2.40707986721214
C         9.26882262425338   -0.75764756651494    1.74845449607209
H         9.36654612380011   -1.83060869471498    1.69355670234754
C         8.92955161854213    1.92346727215998    1.89709890070348
H         8.75671186053466    2.99156252509799    1.96174541970031
C         1.48165681093235   -1.72950677515691    5.50495836967139
H         0.92853497848441   -1.41093625303076    6.37652767087229
C         1.40412568680905    1.32260311981618    5.71435110713750
H         0.41082017697738    0.90491353637830    5.63390155001393
C         2.85104053831552    3.16773736496341    6.20962483031952
H         2.98831030783961    4.18969408589718    6.53036452606039
C        10.18933929083027    1.43128170837559    1.62042000900316
H        11.00875746963340    2.11286263612920    1.46169177597169
C         3.95188246116529    2.39446804963935    5.88167042447513
H         4.94621779497434    2.80873307361290    5.95366527040427
C         6.16244995344959   -1.06093861018706    3.52116959399126
H         5.65545471041401   -2.02174985473982    3.69197615281559
H         6.95317412666508   -0.95647447489503    4.26992596821208
C        10.36900879361852    0.05804540900226    1.56151711635488
H        11.34154625696514   -0.36603558815313    1.36496316530668
C         1.35781945433732   -3.02539025957043    5.03851288781217
H         0.69784600785452   -3.71793659694262    5.53983827714957
C         2.07983329375020   -3.43412372587722    3.92991360134303
H         1.98435519653832   -4.44543854818292    3.56312661112318
C         8.01837256219326   -0.20223609717898    2.00048062998760
C         1.57768115672982    2.62934205361732    6.13226904074950
H         0.71821264483547    3.22955710952825    6.39286475976195

