73
CSD_code = PEBJUC | q = 0 | S = 0 | Stoichiometry = C31H31BClN6OPRu | MND = 6
Ru        3.51783120707458    8.80982318669721    5.98816713589471
Cl        4.86447685083738   10.58123667981315    5.18224137818302
P         5.09762620060587    8.01287192648619    7.47869766058536
B         0.49669548359365    9.33928590695340    6.75960216396296
H        -0.63716060261097    9.51769040382285    7.04204368289568
N         0.90683004272134    7.87329272235126    6.94282952790443
N         2.12307903065286    7.44393688527069    6.60992431009117
C         2.15062660644271    6.13238003387423    6.79267117895750
H         3.03122008940683    5.55187941037661    6.59657824602176
C         0.91408310237676    5.69502259298658    7.26489500895295
H         0.62654982610817    4.69377778732121    7.51072677861091
C         0.15165744180264    6.83907953327709    7.34386884433370
H        -0.86385672963087    6.98090619159753    7.65289384692624
N         0.79248033953517    9.69469196531317    5.29547898629079
N         2.02865329896745    9.57304968783379    4.81446175231436
C         2.02666183265670   10.00523478599113    3.56352811221316
H         2.92631086723772   10.02707753607064    2.97674885320541
C         0.74094936217203   10.42168486840481    3.21724659028184
H         0.41557533202911   10.82287805877564    2.27958234164055
C        -0.01144489005617   10.20601911066418    4.35130357880783
H        -1.05003361063139   10.38380054059605    4.54457680033429
N         1.43950704860543   10.21210206583045    7.59608361964411
N         2.75928310619622   10.15630775336564    7.39830220280447
C         3.32028368942067   11.10860635119346    8.12732224337013
H         4.38175077198379   11.26834311876740    8.11675110643063
C         2.33457429605432   11.80150777943443    8.83090492792829
H         2.47101210051018   12.62224009589951    9.50434288546266
C         1.15232736028402   11.19881586747557    8.45865070912516
H         0.14104499901437   11.40606179681427    8.74531852497155
C         6.06546519562685    9.21295421633098    8.45764764892505
C         6.84288947145404   10.12088888117150    7.73771663130716
H         6.82668516355693   10.08915051200535    6.65650700746742
C         7.58829334764684   11.07664562224119    8.40210161297807
H         8.18028609880474   11.78146762341707    7.83743027736337
C         7.56738728938402   11.13513467438956    9.78703633407328
H         8.14638794875729   11.88441667553690   10.30705631673309
C         6.79933895867640   10.23371793549301   10.50458056622740
H         6.78179895995214   10.27714316045618   11.58427757353550
C         6.04883949440933    9.27384007733415    9.84662808282905
H         5.45355129979664    8.57575812761790   10.41781956799609
C         4.35184968359072    6.98860035757281    8.80280698206934
C         4.77108813850004    5.70429544881498    9.12649034211044
H         5.62114229712770    5.26745253395136    8.62279348190265
C         4.10041062515409    4.97561842473170   10.09467388977708
H         4.43319936126633    3.97633677711770   10.33577549595457
C         3.00879303640597    5.51789783244213   10.74958007915188
H         2.48414465505236    4.94247384791592   11.49786498746796
C         2.59242311240203    6.80407931210780   10.44371843067124
H         1.74465874777502    7.23656976926963   10.95516174074719
C         3.25911585386122    7.53131660015946    9.47776692263017
H         2.93762239789449    8.53658265428546    9.24063501281412
C         6.42919456170398    6.89483354540774    6.90302922355643
C         6.06217855903932    5.84546768523916    6.06239652756507
H         5.02622431519309    5.76011546778657    5.76113457629566
C         7.00076192288697    4.93759897732810    5.61173691932937
H         6.70205969327001    4.12239648805474    4.96788875051540
C         8.32833898608269    5.07337768451149    5.98773837313295
H         9.06625100049157    4.36917751019667    5.63292203307960
C         8.70323879173247    6.11505615697574    6.81819609332979
H         9.73654327645266    6.22427286641997    7.11348664101582
C         7.76113005123439    7.01931780311968    7.28046811630246
H         8.06712073667114    7.82247570030409    7.93389532003490
O         3.20606864126208    7.00128027344399    3.85812779999978
C         4.07648434631277    7.76226985590389    4.47428155647886
C         5.33254380188347    7.86066979938949    3.65773576114506
H         6.23237818148913    7.78527331562560    4.26605775926030
H         5.34003510435170    8.86241249898681    3.21309461661573
C         5.19335882569010    6.75406979310739    2.60765610350680
H         5.56803051965885    7.04670128853827    1.63023107299420
H         5.72339752438139    5.85762751442420    2.93214542703252
C         3.68392268100999    6.51414566466855    2.59275766728158
H         3.18160509165534    7.08651357039057    1.80565604154393
H         3.39646779647706    5.46460083340157    2.50725163689175

