52
CSD_code = PEBKAJ | q = 0 | S = 0 | Stoichiometry = C15H32Cl2NPPd | MND = 4
Pd        4.28967545476827   -0.02953810412386    9.18654857017819
Cl        4.19585017150885   -2.14342185093966    8.43197303082889
Cl        2.11626546284970   -0.14350859509108    9.86997777235286
C         5.00593873192889    1.78760480685378    9.38319963990220
N         4.80481318464720    3.04098887357619    9.08192858519596
C         3.41868623733069    3.50892976339165    8.91981422966419
H         3.46520371724639    4.58151671375165    8.71181032260895
C         2.78412552094626    2.79211624008318    7.72793470916548
H         3.31075457752279    3.02964805734511    6.80483039660056
H         1.74658808904963    3.09518146281602    7.62616876161033
H         2.80901650753773    1.70248042487762    7.88674569058006
C         2.61790613031355    3.27636796475779   10.19789803887686
H         1.62955700500402    3.71355066957575   10.09145481293983
H         3.11034014648008    3.73576374555177   11.05228660863640
H         2.50113327023605    2.20740945396526   10.37886871321979
C         5.88898523408378    4.01683655356397    9.01136948377399
H         6.81065688359963    3.42754635219200    9.10357181601747
C         5.81978793815740    4.97918327947281   10.19799953643970
H         4.92943675922144    5.60059233720499   10.15105664649157
H         6.69070626530777    5.62972864357177   10.19147561514596
H         5.80734301692755    4.42724296821992   11.13554388731777
C         5.91224141422418    4.77686446838446    7.68658927682777
H         5.08066897814697    5.47211248794403    7.60931908011395
H         5.86643803952080    4.09131275853431    6.84346809222208
H         6.83419954389424    5.34904934559620    7.61509150274209
P         6.39629950208739    0.69108283200751    9.27335079456788
C         7.14323288243838    0.49948432534746   11.00093164018935
C         5.97691180190407    0.74479689218157   11.96109837109783
H         5.11807477250833    0.10512145762571   11.69755522890306
H         5.65236598168621    1.78534324029925   11.93670046979511
H         6.27928337976392    0.50342098565751   12.97911819821443
C         7.58585560198347   -0.95769448763403   11.13413802591185
H         7.83273276104768   -1.18179070920501   12.17086718819569
H         8.46083319649069   -1.17087058885518   10.52504663123695
H         6.77238119545386   -1.61844966308626   10.82081557205909
C         8.28893917104761    1.46547269479717   11.27949548420030
H         7.99060903748089    2.49683050876158   11.09514017631322
H         9.15597908947670    1.23350154862345   10.66478850219644
H         8.58993527183358    1.38216653472707   12.32317263399256
C         7.53820554399195    0.79543484003312    7.75098275329395
C         8.21688633765941   -0.57374779801703    7.69372067584943
H         7.48653686878289   -1.36314746984703    7.88326378771617
H         9.02002001519654   -0.64656526066848    8.42419321803008
H         8.64469687632554   -0.73726658002662    6.70579277713680
C         8.57508711134109    1.91020459154719    7.68548878662318
H         9.19480742492251    1.93866238180635    8.57802091465349
H         8.11711314158466    2.88539341064157    7.54361814221485
H         9.22866206226141    1.72812198694097    6.83258462415880
C         6.53411137390097    0.90439640475416    6.60138295974131
H         7.03777174600540    0.77617428460217    5.64497237013116
H         6.03790059779669    1.87497406543300    6.60016551972541
H         5.76564897348023    0.12489074904403    6.69216973325306

