61
CSD_code = PEBLUF | q = 0 | S = 0 | Stoichiometry = C29H23ClN3O2PRuS | MND = 6
C        -1.33252190536420    8.33217168013043    5.39636630165623
H        -1.65428275094737    9.15417453479952    4.77465946376847
C        -2.07934496390806    7.16676098650744    5.44784727346865
H        -2.98350194158663    7.07825499124241    4.86396996901334
Ru        3.10825718759339    9.37341626302127    7.54273395735150
P         1.76256123684900    7.54473050768665    7.92783649290533
S         6.76857606377040    7.91734880725461    9.57981010830156
Cl        4.35468180899989   11.34853196179887    7.18112701694932
C        -0.08136073763545    8.14054508989165    9.93410558552177
H        -0.73989727922489    8.43700878947700    9.12905150448305
N         3.36726920124116    9.64876171192049    9.40094804638339
N         4.93708762676586    8.42099796902311    7.85242599846990
N         4.43133741711009    9.20284659078070   10.00772777171607
C         2.46090086937240   10.39101143639983   10.06162552362510
O         1.35081902156171   10.51784033731391    7.98760450486923
C         5.23134768594573    8.57933283761872    9.14118182906788
C         1.38422552377770   10.83570515716814    9.22063375245479
C         3.95961921003166    4.54723228570224    6.34588672138983
H         4.60253012752260    4.43865332971511    5.48510833188862
C         2.50421106795997   10.70870667142639   11.43109097212765
H         3.34190248341757   10.34810515600237   12.00907489539423
C         1.15174664695378    7.56806998373759    9.63774470951078
C         0.24243749131696    7.38845181440542    6.94238780987800
C         2.51951524332471    5.90369757807802    7.71561735771685
C         1.49978580692580   11.44935893895935   11.99372946538603
C         5.93534961788433    7.81223752747856    7.17343226719690
H         5.83983682341069    7.65732514390579    6.11259913133445
C         0.43761769279489   11.89322556062016   11.17372173077236
H        -0.34609330753186   12.48254502155982   11.62954791332644
C         3.01981997159826    9.36847712969732    5.67227185804728
C         2.01525274465687    7.21253066917937   10.67412169554228
H         2.98811600695434    6.79516713093213   10.44335015098762
C        -0.17070535407439    8.44628161118790    6.14022578503876
H         0.41460286454537    9.35737871474150    6.11740140995392
C         0.36808515809546   11.60890434898361    9.84007688817761
H        -0.44900670485094   11.95943277151878    9.22846785553015
C         7.00237334826476    7.45721327943620    7.92926112205368
H         7.90423699666872    6.96936052529249    7.62437398132326
C        -1.66882536160232    6.11208851489814    6.24876529473248
H        -2.25269086873159    5.20426047207438    6.28934617955688
C         1.63548116260476    7.40675644987518   11.98784812893084
H         2.30705619779964    7.12990927914622   12.78679708278596
O         3.06868154716217    9.50597934593626    4.53925159374674
C         2.29739928712118    4.81881798875781    8.55641848714311
H         1.64773509442511    4.91901606003966    9.41494212200148
C        -0.45232085330917    8.33687604651237   11.25250791973423
H        -1.40753080861362    8.78702092141283   11.47802485629363
C         3.74870232098895    3.47221077061919    7.19545323562227
H         4.23205015595396    2.52669952611984    7.00013037471622
C         2.91613694880575    3.60867230806797    8.29378216430680
H         2.74644112904577    2.76821685408834    8.95077800364399
C         1.49782484087350   11.80022004906567   13.44978295105816
H         1.53243701621321   12.88143424771559   13.57935599630354
H         2.35529677282149   11.36312934206752   13.95385224093672
H         0.58762220096976   11.43760674677168   13.92645172503139
C         0.40350765373138    7.97255755426437   12.27787833868606
H         0.11547214799248    8.13582895447486   13.30545270844951
C        -0.51105656067933    6.21853194186760    6.99614915724645
H        -0.18704250072179    5.39677885951897    7.61950201055338
C         3.34662156079529    5.75811133349470    6.60503643547963
H         3.49341291623234    6.61258158840577    5.95344584035263

