110
CSD_code = PEBMIT | q = 0 | S = 0 | Stoichiometry = C41H63N4NbO | MND = 4
Nb       11.34930813957789    2.69966022803921    0.64264426823643
N        11.23672994114743    1.25819718869962   -0.71024567421499
O        10.50341593084894    0.12852320622139    2.96736858328486
N         9.78304409274913    3.90768110195349    0.45257162024271
N        13.16751240422606    3.54100187770477    0.40747527246834
N        11.36469727482332    2.08574436670623    2.35661397064032
C        10.47666925737410    1.64095411939721   -1.83305820447639
C        11.10087647255869    2.18203910951819   -2.95698259767267
H        12.17378862381283    2.30695133868883   -2.95775620044287
C        10.37295284539267    2.54233171466727   -4.08366986947966
C         8.99836872660062    2.36428345958743   -4.08574419750587
H         8.42114920485617    2.63867693832702   -4.95820555376411
C         8.34553589206449    1.82926831773749   -2.97938440169434
C         9.08725652950148    1.47118291952920   -1.86583767893741
H         8.58800641228726    1.05013832464138   -1.00292278364521
C        11.59931891648153   -0.15998340635200   -0.66172468771070
C        12.19454468604197   -0.61292278235709   -2.00701352497280
H        13.05532735984500    0.00110151606265   -2.26429299259276
H        11.45923895333113   -0.53191452361118   -2.80558313636967
H        12.51335013383437   -1.65032144515101   -1.93752637216727
C        10.37929896567585   -1.03272935209226   -0.31770934971013
H         9.63714388017122   -1.00351893696572   -1.11295579020371
H         9.94233682489064   -0.68046705219402    0.61734849992519
H        10.69364124301452   -2.06505424208668   -0.18289683330442
C        10.06861663640359    5.06205007451313   -0.30177377744765
C         9.69735078649105    5.16785838575072   -1.64222693897476
H         9.19794398550313    4.33937734609384   -2.12356641183114
C         9.95430129151525    6.32421093022323   -2.36588373034956
C        10.60556487121619    7.38183449798302   -1.74636587380004
H        10.80718673344201    8.28608567266033   -2.30413478027299
C        11.00745210540622    7.29665587163233   -0.41806562257005
C        10.72961375424379    6.14047399295468    0.29514733979475
H        11.02200092449495    6.05698325021033    1.33592681164074
C         8.46262381137376    3.91445779067124    1.08934124548766
C         8.40858964644096    4.99673957060396    2.18539090241269
H         9.23852354490432    4.85715193327513    2.87734107245472
H         7.47492006564481    4.92280598746117    2.73795275897769
H         8.47333462740402    5.99143547323666    1.74792133841705
C         7.34284437558944    4.18716446129846    0.06910918957319
H         6.37652482684581    4.13300971789910    0.56543235924552
H         7.36830316733486    3.44604119917050   -0.72558990260091
H         7.44662608650890    5.17730297255789   -0.37019503699385
C        13.59800327151626    3.58910594703723   -0.93077944256536
C        14.39701568314662    2.57633535181584   -1.47589324224404
H        14.67185235217027    1.73173797478754   -0.85791473123860
C        14.83688956509648    2.63537247686478   -2.78734093153411
C        14.49443014698514    3.73603778483555   -3.56696746984884
H        14.84666037247465    3.78999585576860   -4.58786282190255
C        13.71889753769240    4.76224903457296   -3.05056573132859
C        13.27043480591536    4.67706949623146   -1.73837815371334
H        12.67819685701640    5.48052390919699   -1.32301218473566
C        14.19308396504859    3.87193910333393    1.40722013830250
C        14.76820088972911    2.58618618619679    2.03158050016877
H        15.38537446247285    2.05521184525763    1.30987632869151
H        13.94852258763056    1.93802340557239    2.34432170819131
H        15.38863351390548    2.82610595651385    2.89255360633233
C        13.53328465545435    4.72241516877961    2.50479392654017
H        13.22593626585338    5.68148673953109    2.09036409553102
H        14.23382295841631    4.90582609310406    3.31714480833937
H        12.65702838873585    4.20184101322777    2.89319508956906
C        10.98200139368648    1.22247480057154    3.28188482494695
C        11.15112912052241    1.60944696753347    4.77101470414121
C        12.65013950253914    1.65752481639125    5.08280275471561
H        12.80458760699881    1.86139745107518    6.14152833227671
H        13.13325116686832    2.43856596694859    4.50206687167275
H        13.11679980183026    0.70430325711193    4.84313330498814
C        10.52478463118121    2.98328280992412    5.02184126096914
H         9.44242486852702    2.93406533689734    4.91798754383190
H        10.91068972350081    3.71089331366867    4.30823678361923
H        10.75760573429948    3.32337063692804    6.02981291901303
C        10.47349515028512    0.55677642129188    5.64600530673692
H         9.41356723688147    0.49593403614245    5.41187947837623
H        10.59076165627512    0.80685393433274    6.69870927822584
H        10.91114267398615   -0.42029155850460    5.46069733929142
C        12.64623378865689   -0.36851406010953    0.43933146299151
H        13.47075959562540    0.33438289131990    0.32364858772518
H        13.03940505046192   -1.38216766371120    0.38681276378596
H        12.18309418818214   -0.22846011249816    1.41556417076709
C        11.08789555695983    3.08401272588851   -5.28559166062067
H        10.38912448240844    3.51866953606224   -5.99729275854469
H        11.62885642220278    2.28141088511381   -5.78779579173806
H        11.81412807837405    3.83711002394239   -4.98839409790572
C         6.85662330523220    1.64130336810640   -3.00882930576943
H         6.35369126854293    2.59498682496752   -3.17227098931743
H         6.49689270973955    1.21271775938060   -2.07590983078136
H         6.57717518594040    0.97606439312491   -3.82572824914573
C         8.20189536474110    2.55094178334309    1.74039776593681
H         8.86848845060816    2.39652718905135    2.58623883427677
H         8.36652351175002    1.74213483051666    1.02846034692634
H         7.17346131941493    2.49942121549074    2.09395452474838
C         9.49519169914727    6.42424173423532   -3.79049045579963
H        10.00271617306434    7.23162954242349   -4.31412503128108
H         8.42340153875531    6.62411526554531   -3.81984231613306
H         9.67313674591436    5.48819011671472   -4.31495481797847
C        11.75198915188873    8.42788478876246    0.22737031918463
H        11.45715783449791    9.38246502203622   -0.20280736898993
H        12.82504018481293    8.30600899130029    0.07009780050543
H        11.56981134200329    8.45165138034272    1.29951329695605
C        15.34585015938393    4.69658848757773    0.81160032179527
H        14.96460679402340    5.59352557268278    0.32743922268497
H        15.90742761059667    4.12424974271196    0.07701394082122
H        16.02448070277695    4.99309181206131    1.60820615206030
C        15.66421862056785    1.52992492588969   -3.37431860870249
H        15.96547231170624    0.81760316917050   -2.60992291755465
H        16.55741871012768    1.93211306423954   -3.84989386861197
H        15.09445606961691    0.99675582556231   -4.13606104815639
C        13.39718756925120    5.97598405538159   -3.87077331928197
H        13.58328184705732    5.79833852603473   -4.92787527711583
H        14.02159041155812    6.81188315201404   -3.55331211654513
H        12.35873374589697    6.26608858750663   -3.73106918564476

