57
CSD_code = PEBNIT | q = 0 | S = 0 | Stoichiometry = C25H24Cl3N2P2Re | MND = 6
Re        3.82508860583769    4.11060189189258   -0.20731097584839
P         5.04960800596858    3.07992119180492    1.73207524505415
P         4.03517298207394    5.65584884825559    1.69928049859280
Cl        5.90943838608276    4.92538921665382   -0.44301308871428
Cl        2.99852954364308    5.59689042096634   -1.82415986856683
Cl        4.25284584746826    2.49294568195911   -1.83671079907111
N         5.03714926219243    4.58453166919533    2.61070931834231
C         0.97078712070774    3.05753679325700    0.51508624489388
N         2.24124312609887    3.51088010385795    0.20379856844033
C         6.77928991597252    2.56691844039744    1.64482843474421
C         7.63661042249042    2.73523667451433    2.72737979161300
C         8.95406477877952    2.33033764514365    2.61858541689648
C         9.41050870209853    1.75865786938348    1.44034588178060
C         8.55141234356513    1.58304606288253    0.36750871442323
C         7.23132975652519    1.98580103600084    0.46512571735917
C         4.30942992329402    1.98646654789079    2.97759476900180
C         3.09487370054438    2.38062230269273    3.53138590384564
C         2.44908679591392    1.56286589504299    4.43750788868052
C         3.00143565955760    0.33667892603250    4.77693145876457
C         4.19470022568098   -0.07104779625947    4.20363559235347
C         4.84871031054625    0.74669753986888    3.29867747067442
C         4.89597183873427    7.24388653689484    1.61926149447536
C         5.60712620161877    7.73130122897075    2.70984897584498
C         6.24114701256752    8.95605080243344    2.61219521575597
C         6.15869943370665    9.68959112990875    1.43841668846106
C         5.43717829166807    9.20599426004240    0.35885596468978
C         4.79975667895524    7.98122358454884    0.44474768601453
C         2.67518065148062    6.01276738243356    2.84897532588876
C         1.49563519905224    6.46115509090047    2.26253201280033
C         0.40839276753453    6.77323631610057    3.05722103099117
C         0.49720708476188    6.63040954531602    4.43378989090813
C         1.66972966002905    6.17492727661309    5.01574413570309
C         2.76353498981047    5.86589447317733    4.22683312393797
H         5.96401970020091    4.94574477522355    2.82432766145584
H         0.29565764810465    3.29228487260145   -0.31764682715795
H         0.98471192322589    1.97141569455441    0.66670788591214
H         0.59649009871014    3.54578651561759    1.42375870405782
H         7.26797154813403    3.16820488583925    3.64858126744642
H         9.62731932585974    2.46025397236771    3.45340430116205
H        10.44224900721847    1.44959677094562    1.36064643702354
H         8.91060032627032    1.13771022212376   -0.54787969570847
H         6.54904272897515    1.86705111555848   -0.36717722914543
H         2.67413521362969    3.33502472349213    3.24194563308692
H         1.51241563867031    1.87545697956877    4.87544301825162
H         2.49629662586969   -0.30545780079050    5.48296665131327
H         4.61699328978376   -1.03121566248115    4.46071536741087
H         5.77742971863406    0.42859280565515    2.84619626442666
H         5.65760339954465    7.15893828436334    3.62700647680657
H         6.80097037176755    9.34023551686849    3.45250454571291
H         6.66055942605107   10.64327957475425    1.36766513577210
H         5.37510631112141    9.78032291306855   -0.55303870010560
H         4.24215107765815    7.58188032189844   -0.39316678947885
H         1.45057116331742    6.54445127009952    1.18346009230189
H        -0.50910855401512    7.12174903330084    2.60721672402858
H        -0.35274253528814    6.86959493484641    5.05553622319534
H         1.73083825978288    6.05959427372462    6.08805601730123
H         3.67664306182534    5.49513941807469    4.67018710620018

