86
CSD_code = PEBNUF | q = 0 | S = 0 | Stoichiometry = C42H35ClN2P3ReS2 | MND = 5
Re       -9.15758884387684   -2.40979565845975    4.08189339427995
Cl      -11.33774119806326   -2.11352543068612    3.48993188715774
S        -7.53900458489595   -1.92457565432507    5.90224472733666
S        -8.89239394449560   -0.31580157244750    2.77597826929939
P        -6.89978336906019   -0.09574183259070    2.64769572728144
P        -6.90744950424932   -0.05481428936223    5.45305088930531
P       -10.22801982466031   -3.88438865622479    5.64534687598761
N        -8.37700365622775   -3.57777320318012    3.08292254263453
N        -6.10957257773085    0.10876645519768    4.06407503734347
C        -5.73699313051277   -2.60007875496189    2.50795013641612
C        -5.26575369229965   -3.71603533075121    1.84162092818991
C        -5.23359783150551   -3.73338432611662    0.45721909592548
C        -5.67210855531872   -2.63745233400801   -0.27006933888227
C        -6.14811823817884   -1.51854160544394    0.38642400291329
C        -6.16698782527660   -1.50221230548617    1.77476942493778
C        -7.53495750353167    2.21232133692458    1.17664345232505
C        -7.18584011087488    3.36100651436516    0.48716382413866
C        -5.85075631521191    3.67916229556307    0.30035861305433
C        -4.85658058987370    2.85269000296095    0.80288275873007
C        -5.19857870550256    1.70440245951910    1.49106339758281
C        -6.53877666272062    1.38540250655779    1.67167878220598
C        -8.25067671960175    2.30786624062152    4.93462531576547
C        -9.33638179596624    3.16168771485962    4.95136149021192
C       -10.49604819553561    2.79797297033178    5.61983558619595
C       -10.56792092227512    1.58538525855836    6.28419039653112
C        -9.48266195708274    0.72779616228615    6.27334264367862
C        -8.32830680045665    1.08593891688246    5.59072971710007
C        -6.20644321394767    0.58830837644596    8.04384451298952
C        -5.31518067362547    0.93050074557884    9.04312834671007
C        -3.97189713787688    1.09866114395154    8.74398987639905
C        -3.51630630651298    0.92354748347899    7.44711743015008
C        -4.40276635918130    0.58080489888364    6.44228465165825
C        -5.74550245412212    0.41848329810130    6.74512194661510
C       -11.27570069111517   -5.44130300458898    3.64501928662913
C       -12.15755334314775   -6.35085369607084    3.09171114206332
C       -13.22585890305924   -6.82492280985949    3.83743026346052
C       -13.41212234453685   -6.39579846888640    5.14147498378678
C       -12.53397253879672   -5.48819617697429    5.70631262735687
C       -11.47276397689777   -5.00293328604698    4.95126803032389
C       -12.31406509579426   -2.35978096349040    6.68502374087571
C       -12.86947697982987   -1.48297885337513    7.59969433314370
C       -12.15397262217577   -1.10182922196689    8.72424844397936
C       -10.87604693816061   -1.59623483728568    8.93679304188844
C       -10.31146227435001   -2.47429228864410    8.02913360363745
C       -11.03591592313322   -2.86805968047552    6.90465371982244
C        -9.59262596755667   -5.63566172354128    7.75020995944723
C        -8.77895438738710   -6.56050600143026    8.37804516227366
C        -7.55899693371629   -6.90675953309037    7.81856552394460
C        -7.15005992715177   -6.33141865236771    6.62609659107842
C        -7.95638160758468   -5.40387390642612    5.99136510364341
C        -9.17530210823349   -5.04957614570867    6.55983947720777
H        -5.77288314886447   -2.57163447183208    3.58942675696153
H        -4.93609500809381   -4.57601760048733    2.40421907612299
H        -4.87144444831247   -4.60891682486747   -0.06148985284208
H        -5.65108464206332   -2.65953194522993   -1.34989001742740
H        -6.50635324236826   -0.65885071119063   -0.16529985778309
H        -8.57266879763210    1.95035779593584    1.33150252430889
H        -7.95696257413899    4.00819464343816    0.09541135047577
H        -5.58214493802507    4.57622873402763   -0.23829374142999
H        -3.81677399492537    3.10648266211180    0.65653974256054
H        -4.44403339698590    1.04461515108035    1.89719299055342
H        -7.34667631963906    2.56448272102477    4.39646302639179
H        -9.28438718361443    4.10634279555704    4.43010725593650
H       -11.34983311695837    3.45948063646435    5.61478211906170
H       -11.47192944461268    1.29460670451479    6.80043580086378
H        -9.54035820385670   -0.22596306160814    6.78508177630094
H        -7.25761390966977    0.45095458304612    8.26142661199249
H        -5.66516233190583    1.06660914016950   10.05598800458107
H        -3.27793613769452    1.36630119522535    9.52724266440982
H        -2.46838586780244    1.05322194480891    7.21975637599118
H        -4.07625122683736    0.43871068112326    5.42296449391466
H       -10.43957670863555   -5.03857178425753    3.08111876388008
H       -12.01582408409305   -6.68717729713238    2.07582931797522
H       -13.91836256630237   -7.52977363434932    3.40104748007106
H       -14.24517396212657   -6.76739135057217    5.72059121395878
H       -12.68111039964047   -5.15084318790109    6.72346158857968
H       -12.85260727011033   -2.63992974250423    5.79029530436458
H       -13.86067904563757   -1.08839465765284    7.42889211568836
H       -12.58868278152362   -0.41174962003945    9.43303182121832
H       -10.31413688110932   -1.28915359414751    9.80733124222751
H        -9.30613397455455   -2.84891105924328    8.17397887962997
H       -10.54397670061769   -5.36359566883853    8.18689884306943
H        -9.09678312882614   -7.01276702628667    9.30636308089023
H        -6.92716981326929   -7.62796924222865    8.31598073150297
H        -6.20034941743358   -6.60482726909933    6.19190159494248
H        -7.66342356950811   -4.93132421583200    5.06000954417790

