50
CSD_code = PEBQAO | q = 0 | S = 0 | Stoichiometry = C21H26ClNTi | MND = 11
Ti        3.46932160741059    0.47645916460521    2.95582321513069
Cl        3.16531217511186   -0.08076431476727    5.07732419765985
N         1.99319666231634    1.51291266390955    2.49251556698736
C         1.13761028194129    0.49679229237124    2.79024882461665
C         1.52448957300971   -0.79749983208740    2.51673069220122
C         2.72813002047321   -0.98663657503250    1.69365230444564
C         0.74980874693648   -1.95473495730080    3.08828107689398
H         0.95786479428708   -2.86955623489956    2.53644265479604
H        -0.31933635880331   -1.74564284530240    3.04190066659834
H         1.00892945437418   -2.11707954437605    4.13756524237042
C         1.60882015641531    2.88381346158176    2.72545793880261
H         2.39982130429290    3.51061323423016    2.28296762580001
C         1.53874020350853    3.18497470132211    4.23311880025794
H         2.48917634809106    2.89477807576325    4.69955857004719
H         0.74763126601843    2.58077484980313    4.68494544870105
C         1.24583748515848    4.66390988129744    4.46232922744213
H         1.18324461131226    4.86729285526942    5.53293590675771
H         2.06232438924200    5.26491365182587    4.05443541206659
C        -0.06228134406151    5.05800660930323    3.78054240699012
H        -0.88695251919464    4.50350345186053    4.23396649214219
H        -0.25340606629664    6.12226893611043    3.93075991343030
C        -0.00663696896076    4.74884831922513    2.28649348059991
H         0.77806566594940    5.34954211009137    1.82066830685736
H        -0.95512080508524    5.01582588979589    1.81608048932773
C         0.28281548615757    3.26842497630487    2.05459745588328
H        -0.53084356430959    2.67207469111074    2.47154917668629
H         0.34538725190701    3.05275003333204    0.98488732321274
C         3.42641464947589   -2.26720439666720    1.67292542116758
C         3.75482708296388   -2.92000665821077    2.87050506102950
H         3.45869757263532   -2.47764769140864    3.81678241754413
C         4.46698971925368   -4.10234970137754    2.85664258847773
H         4.71080798701076   -4.59184992896330    3.78876135568453
C         4.88001324478421   -4.66118910112071    1.65577212933643
H         5.43913887194965   -5.58490330489951    1.64952842613647
C         4.57665230538329   -4.02147426911966    0.46557203795404
H         4.89943726128104   -4.44768286984664   -0.47368177167969
C         3.85925792247709   -2.84048958158054    0.47237105396025
H         3.62129783833725   -2.35097462165730   -0.46341944088603
C         4.81588597973606    1.74470301611620    1.59312724231566
H         4.50279102413707    2.30174608218776    0.71805001211650
C         4.94411954159753    2.26049983974005    2.90314481935823
H         4.76258656830463    3.28405740118951    3.20639519941748
C         5.52969332850978    1.26089635708899    3.70749141617876
H         5.83669899490975    1.37663286807538    4.74108264249623
C         5.74987818973646    0.12352921282314    2.90434264320270
H         6.25634040880614   -0.78397626461203    3.21306762868631
C         5.32149722016996    0.42479356202383    1.59448584637760
H         5.47303083782835   -0.19867330351982    0.72284658669898
H         0.19451576010142    0.69314976867898    3.30563607701188
H         2.64067783341262   -0.50455196028750    0.70469219071757

