33
CSD_code = PEBQOE | q = 1 | S = 0 | Stoichiometry = C10H12AgS10(1+) | MND = 2
Ag        3.63096209582382   12.77002843717427    0.00017073591035
C         2.56957723627244   12.08616073303385    2.93502813151917
C         1.94289752111821    9.60451748970756    3.36187701947157
C         1.68935101078497   10.25806600623623    4.53378955496308
C         2.11067289933095    7.67609544480070    1.41620056264298
H         1.45272935521683    8.27694421211296    0.79437495155357
H         1.96030834057186    6.62242833568386    1.20209791229209
H         3.15264992811111    7.94035253417391    1.25614849346544
C         0.87077610318416   10.80015010683151    7.10142090693833
H         1.83480660981030   11.25734345162095    7.30590939192859
H         0.46995001430642   10.36134914998294    8.01002265536461
H         0.16855370291360   11.52516108989995    6.69993525295187
S         3.06848169894670   13.54416045992806    2.26209757375002
S         2.56809819530171   10.60014236308480    2.06608021972224
S         2.02405028373882   11.97448335814614    4.55857928279167
S         1.67786413067887    7.89201717937210    3.16518040832376
S         1.07217866123236    9.42423754600570    5.93713117202618
C         4.69244603769506   13.45382848223836   -2.93505578374297
C         5.31911524906947   15.93548294358900   -3.36188246940523
C         5.57265992618188   15.28193909211164   -4.53379973774396
C         5.15133130525661   17.86390565713442   -1.41619868560600
H         5.80927239443467   17.26305436526390   -0.79436886172825
H         5.30169814654765   18.91757270344177   -1.20209361856616
H         4.10935007878046   17.59965327202692   -1.25615297123325
C         6.39121133576234   14.73985115813060   -7.10141865771684
H         5.42717531733956   14.28266801879805   -7.30590913002521
H         6.79203899972796   15.17865223684426   -8.01001964778489
H         7.09343083026710   14.01483082088790   -6.69994099535665
S         4.19351480220078   11.99579938444351   -2.26218490162889
S         4.69391347918971   14.93984335828759   -2.06609985363603
S         5.23795766407551   13.56552381872194   -4.55860777048378
S         5.58414419508711   17.64798260156025   -3.16517624914780
S         6.18983245104118   16.11577418872583   -5.93713489181473

