49
CSD_code = PEBQUJ | q = 1 | S = 0 | Stoichiometry = C24H20CuN2S2(1+) | MND = 4
Cu        8.65184873731610    0.89800119924245    3.28305348106674
S         7.60043958635603   -0.34873929139477    5.04146314399394
S         7.26210782841954    2.92242055868966    3.16651433793072
N        10.41204342411896    0.52013072950593    4.19601841996594
N         8.25737815962036    0.74828358670740    1.29648186989204
C         7.38804021403433    0.88304301173975    6.40583236849188
H         6.52587731328280    1.48210556513517    6.10991743621860
H         7.15573831958138    0.31804871040239    7.31021489062875
C         8.55688254252734    1.69483840355675    6.57399399912107
C         9.59164978476634    2.30042876331495    6.69430488705657
C        10.79913948347826    3.02396831670819    6.81278624926733
C        11.18924114980703    3.89293698126025    5.77602394141947
C        10.33908730564142    4.01611955671963    4.65497828345591
C         9.59357691753484    4.08686864717099    3.71225834112277
C         8.61774732243540    4.07639234961138    2.65805031677515
H         9.03986744953323    3.70410702789789    1.72328993802893
H         8.17764298176504    5.06457912315456    2.51277722829675
C        11.62287580131472    2.86777492788786    7.92403844038222
H        11.31611471789638    2.20393181197758    8.71863969162116
C        12.81424513978334    3.56470202201522    8.00749737870909
H        13.44559859616222    3.44380498724982    8.87422403381257
C        13.19714637915098    4.42142213049688    6.98533988677640
H        14.12610618318586    4.96558831054976    7.05828522771373
C        12.39092118778890    4.58639714255700    5.87361987946049
H        12.68101807054677    5.25489902521630    5.07691004707285
C         9.18396734238391   -1.10373932866958    5.54083036808129
H         9.11805733658262   -1.36338219029680    6.59710390366409
H         9.23617783772587   -2.02775072445836    4.95862340506037
C        10.40406764140521   -0.27454773067924    5.26818792830260
C        11.51705363108549   -0.39223592308314    6.09253867876736
H        11.48282449197069   -1.03993104109345    6.95397262893306
C        12.65970712912560    0.32854043096528    5.79308676442439
H        13.53134025360923    0.25913336240948    6.42473335108000
C        12.66427864320676    1.13396082348417    4.66357526099123
H        13.53537498551127    1.70450406527625    4.38765905194782
C        11.51712764645679    1.19852005677998    3.89701666687502
H        11.47205876083822    1.81294709235987    3.00980870598697
C         6.56335935730939    2.49463039798094    1.53615996478662
H         5.62094489029298    1.99486342581118    1.77530334505250
H         6.33561768737131    3.41909765955110    1.00505096219979
C         7.40643696511523    1.58108396595791    0.69512961097479
C         7.25184474625689    1.58926943137269   -0.68703688716288
H         6.55742193876431    2.27487197697623   -1.14642702001811
C         7.98846940960239    0.70499301128255   -1.45568876101234
H         7.88198618835311    0.69385066351915   -2.52905940386363
C         8.86336716951427   -0.16406125873065   -0.81873196471947
H         9.45426376343788   -0.87047231557825   -1.37769901766548
C         8.96587526114911   -0.10401287912345    0.55752139750502
H         9.63644232688438   -0.75558656938723    1.09912734153240

