44
CSD_code = PEBSAS | q = 0 | S = 0 | Stoichiometry = C17H21Cl2NO2Ru | MND = 9
Ru        2.08751992134297    6.86133645927073    3.21329319798665
Cl        2.80209243291343    7.90726919295435    5.17992103198385
Cl        0.69266104103696    5.54517016113488    4.54940230583286
O         6.16509801521721    1.25047613003861    3.65978659977328
O         7.54722837202259    2.82741544873727    4.46098545973617
N         3.46355869082881    5.48986172949746    3.53275315374813
C         4.74923427802137    9.53411172362358    2.64158846053246
H         4.51242494088763    9.16012879596513    3.63632550839028
H         5.37631228703304   10.41625099993681    2.74280047734239
H         5.30767460773077    8.77661923458370    2.09520296533566
C         3.73466479391697   10.45841275448037    0.51803435866248
H         4.28740564457008    9.74139484038076   -0.08504708872898
H         4.32735597225352   11.36611322620775    0.59795591651652
H         2.80534841178403   10.69792658302607    0.00449903625173
C         3.45285598185600    9.89806882257668    1.91650329825544
H         2.94881547264914   10.67315852767482    2.50357191837092
C         2.52366454020226    8.71215068659659    1.81553097559285
C         1.19885720773108    8.78902511614269    2.34202099617321
H         0.88400082749944    9.70189015329231    2.83837498198863
C         0.28052135464690    7.75405226934267    2.14809833515729
H        -0.74189520289372    7.86065510900439    2.49659342245047
C         0.64690344781434    6.57427752211205    1.43363801462295
C         1.95948849640648    6.47832040741880    0.95407451633731
H         2.25394524485232    5.61791476026335    0.36170401411686
C         2.88931286845023    7.54137788564291    1.13982621659575
H         3.86816706549073    7.46361307275192    0.68055213531170
C        -0.35921249433079    5.48699466237610    1.22938657882748
H        -0.61031945630375    5.05115832391600    2.19970505809576
H         0.02995613193200    4.70404544892196    0.58251041200985
H        -1.27403071406415    5.88812676380040    0.79547575989219
C         3.17167244707208    4.20553184135076    3.27341294983721
H         2.15082548481510    3.99339163189585    2.97749023355469
C         4.09446611301604    3.19148228052990    3.40354832949429
H         3.82812987780278    2.16824445640195    3.19113629055545
C         5.38971548143846    3.49306937083682    3.82592062335580
C         5.68687499601090    4.82679762963989    4.10323349457743
H         6.66955983502213    5.10995600862731    4.44216433546884
C         4.70613636858105    5.78287235613198    3.94197173575891
H         4.90130495917967    6.82327313509707    4.17149277475692
C         6.38070919908690    2.39768711823119    3.96384417730856
C         8.54740247922276    1.83475212479939    4.63717835453795
H         8.18119686906308    1.03947049264392    5.28955851016069
H         9.39912340916738    2.33784599831000    5.08712339275844
H         8.82267229904090    1.39870874385001    3.67445678071708

