75
CSD_code = PEBTOH | q = 0 | S = 0 | Stoichiometry = C26H44N2Si2Zn | MND = 4
Zn        7.01176334941637    8.24288191792835    8.88399998796610
N         8.68553808644043    6.88491067467021    9.87762122534616
N         5.34718257841483    6.91877064890897    7.83033428882798
Si        9.34277908754027   10.33127058870623    7.61453044078737
Si        4.66594062602677   10.25840711367289   10.23274381382490
C         8.18375426200019    8.85642692711350    7.29518409949126
H         7.51232985958974    9.19939666861101    6.50284723612789
C         8.84096414946364    7.63077216789122    6.79928013321438
C         8.66193353552791    7.24501580464803    5.46618966299138
H         8.06005213237356    7.87298962495499    4.82183140926631
C         9.23576948522881    6.10360005785129    4.94448993883494
H         9.07133019790204    5.84169158844958    3.90860185219828
C        10.03114681796925    5.30360568532216    5.74636906632485
H        10.49370438470747    4.41187826894042    5.35054180062101
C        10.22872840181670    5.66784667893602    7.06688193648222
H        10.85216820128591    5.04760661483528    7.69810312700854
C         9.64941673160203    6.80844177392953    7.60232939827307
C         9.87962254439129    7.12843530806990    9.05267220963247
H        10.13928634625172    8.18150488053363    9.15715380866651
H        10.72086466575167    6.52656118425008    9.43408653363367
C         8.94702068229465    7.33855412462179   11.23843726675098
H         8.08046173694086    7.12390423484206   11.85988943294668
H         9.12960937873170    8.41077661602891   11.24197524181621
H         9.82136511384750    6.82964657910019   11.66805689083624
C         8.39059958176827    5.45858563382227    9.91444966141359
H         8.27229031815624    5.08358126639518    8.90123014188596
H         7.46879821768755    5.29364834134741   10.47052625289244
H         9.19983950979116    4.89651127916368   10.40227562789470
C        11.08679101672596   10.02675942227664    6.89279563059963
H        11.53995214051264    9.12853038173989    7.30048191396554
H        11.75465490491809   10.85807626674922    7.09723332541561
H        11.03797241927201    9.89892898310670    5.81607334401778
C         9.51498010135965   10.82662775973137    9.46041762335513
H         8.61260245585666   10.58408115687589   10.01671299474353
H         9.67414068189760   11.89664677205049    9.55046776216076
H        10.35434309485969   10.34034395059534    9.94867223131957
C         8.57648926555201   11.84372081124642    6.73157918846487
H         8.47762628255850   11.67415254969359    5.66417109299556
H         9.18824431101229   12.72997853189705    6.86599382296787
H         7.58880595968494   12.06581439036654    7.12349965469490
C         5.83309739584690    8.77896167677074   10.49629800456458
H         6.50008549118668    9.09286048292955   11.30426929637179
C         5.18456480997132    7.52800446264272   10.93728895595212
C         5.36737940250100    7.08399587096504   12.25168395028545
H         5.96587601861690    7.68617792012592   12.92325322810950
C         4.80169445977880    5.91649901422161   12.72208257058499
H         4.96924112162020    5.60935094612708   13.74496743567946
C         4.01065880872424    5.14796715625527   11.88587864522053
H         3.55422232383631    4.23645697693703   12.24174821641146
C         3.81007249665430    5.56930712359688   10.58293378930429
H         3.19084187719110    4.97344577794687    9.92468000503410
C         4.38173227504533    6.73627489745677   10.09858023932310
C         4.15046139749596    7.11752187979868    8.66338774943189
H         3.31410514395704    6.52665327875268    8.25498048829812
H         3.88313523037517    8.17213719832475    8.60444202528151
C         5.65210525934895    5.49751055134164    7.73181921161345
H         5.77744165303085    5.08057376022852    8.72760642407282
H         6.57269394306931    5.36312524282009    7.16563424830525
H         4.84474459820349    4.95083518527992    7.22379661409437
C         5.08382778200399    7.42929835816807    6.49021236727463
H         4.21443674599574    6.93250452901636    6.03708662224845
H         5.95311522105313    7.24941496311087    5.86160083309653
H         4.89216622574874    8.49903021141233    6.53332378379359
C         4.49644864087966   10.82657661414099    8.40761550568568
H         4.33309740660313   11.89870040903560    8.36030588749107
H         3.66087788377702   10.35680697746783    7.89719922397753
H         5.40181329415629   10.61036700517308    7.84533407742579
C         5.41935057241321   11.74198346239225   11.17392495758292
H         6.38609594891216   12.01470815212663   10.76232768684740
H         5.55982944969171   11.51893957705773   12.22667319171870
H         4.77801683246162   12.61505113106359   11.10795992667778
C         2.92066127752233    9.91868410610558   10.93511522043182
H         2.25997801517258   10.76755845272412   10.78742174744018
H         2.96889532664358    9.71883419833983   12.00078748619397
H         2.45927305341925    9.05389922022211   10.46874931351105

