80
CSD_code = PEBVUP | q = 0 | S = 0 | Stoichiometry = C33H29N7O9SZn | MND = 5
C         0.40878261481358    8.98370045288033    8.49080483862540
C         1.56318580207873    8.07561386127343    6.46597265256174
H         1.38247812855653    7.08783979032288    6.86181348308279
C         4.14080488632317   10.35391751585771    1.78359590839035
C         0.07444443010300    7.45197971184854   12.21097260791997
C         1.83894080108544    7.00099231536532   13.91783328590301
H         2.31162663214736    7.91770950838060   13.60145212307980
C         2.38319222044803    6.23185472687172   14.92749436830575
H         3.29885046057117    6.54418708436691   15.40462161638207
C         0.57758506774639    4.64513507768133   14.67337009438329
H         0.11308713531786    3.72357524976638   14.98611865777510
C         4.21261707052997    3.14755412660329   19.15232169479102
C         1.13364962052907    9.17875263350873    7.19828110855820
C         1.35957021123100   10.46223530951225    6.71349322501819
H         1.01389674244029   11.30311072945586    7.29428831163169
C         2.21212743331701    8.25223310475706    5.26144295768546
H         2.55163309711874    7.41406098831231    4.67399712283384
C         2.00709702431097   10.64885026853927    5.50815883555363
H         2.16522903929203   11.64771122764278    5.13194122322669
C         2.43558129924068    9.54101758109582    4.78253695073251
C         3.66383329035280   10.78484607957676    3.01001715791349
H         3.72514950733838   11.73843933004710    3.48634742907495
C         0.66634246774917    6.60375422724271   13.28548149271894
C         0.04339414409713    5.41881743912299   13.66400646100082
H        -0.86118118862604    5.12386748583142   13.15585537510053
C         1.74598978749786    5.05546914501537   15.31123293670273
C         3.24118986870364    4.52040711978844   17.22864376991629
H         3.80080923026936    5.42847936136226   17.27294526242466
C         3.30947089753512    3.38627978483686   18.01965853261726
C         4.86560230335877    1.64148143781087   20.80826756595582
H         5.91697205513313    1.67693981391243   20.51445195870288
H         4.59034568045077    0.63946154918629   21.12595696380385
H         4.70487274547369    2.35916557284243   21.61580284422341
C        -1.11528392389619   11.41641467416340   11.62928851999862
H        -0.26396968988924   11.48138417521102   10.96934358880504
C        -3.29548606675568   11.18117662466775   13.26168893682586
C        -3.51130669771069    8.88429264952301   12.47011100961371
H        -3.13755562274124    8.08585889491031   11.85159690360834
C        -4.60643010295060    8.72018411552678   13.27266960449334
H        -5.12530828981528    7.77345343328291   13.29265431625095
C        -5.07113833502062    9.77144968285089   14.07988698672687
H        -5.93920751571250    9.61869381215941   14.70381838320718
C        -1.50438527022109   12.51802942485962   12.40539429960911
H        -0.93985687286126   13.43504268773359   12.34584627150948
C        -2.59512787886851   12.40283750803419   13.22326888064209
H        -2.92959673465785   13.22603322200546   13.83897019939312
C        -2.82788373037122   10.11515969586756   12.44171084033606
C        -4.42906735529588   10.97750940472772   14.07562720785705
H        -4.77544577206597   11.79344551277242   14.69338159523339
C         4.86222516105311   11.11641588666808    0.75689766344670
C         5.71200755386719   13.23651740810058    0.24246396784394
H         6.70951322049080   12.84028518344438    0.04207052611459
H         5.77503357897338   14.21268107849891    0.71620439559357
H         5.16507993739950   13.30088730793057   -0.70045614702516
C        -3.95759822060684    6.34114837065169    8.70686189304504
H        -4.15826626095378    6.03403139410526    9.72731219435678
H        -3.99434859734059    5.47906112264873    8.05191702282681
H        -4.67679305021445    7.09213032738619    8.40297579866894
C        -2.31701685348732    7.51297167982702    6.90595236771614
H        -3.13940793081829    8.19999402099014    6.74267104670618
H        -2.43441022191265    6.61400059994542    6.31220618853690
H        -1.37745813331637    7.99556523124133    6.65957374180798
N        -1.74485040813763   10.26723844357376   11.64312538859585
N         2.25728479565496    4.25649359015976   16.34251313082489
N         3.08676614863325    9.69062382876516    3.55157324514117
N         3.20864354455368    8.65897914500345    2.69885363235969
N         3.82218454421861    9.04039984875383    1.66136924982715
N         1.76101671524631    3.03186829127192   16.58660630050339
N         2.37354279689223    2.51485817503983   17.56578978551365
O        -0.98703649112481    7.08492272923921   11.65523921720619
O         0.01770938718977    9.98847947156722    9.12451744264574
O         0.18113604645844    7.81941063656685    8.89133429956081
O         0.63015316093127    8.52867762867577   11.90032075414274
O         5.02213315264591   12.39570104160975    1.15590675934691
O         5.26356061230490   10.69402452358594   -0.29292109361244
O         4.03245670628233    1.94794163323643   19.70207844319863
O         5.02432244996884    3.95675906236708   19.53667095053100
O        -2.47285904010240    8.35264782462772    9.39128767043280
S        -2.25809714936848    7.05624978665790    8.68375164578462
Zn       -0.84614780304738    8.77432959888116   10.50789615757057

