57
CSD_code = PEBVUO | q = 0 | S = 0 | Stoichiometry = C18H34BNbSi3 | MND = 13
Nb        7.49018359526094    4.01972693778105    6.08172010419801
Si        5.48178500420811    1.47107263098802    6.64853514843696
Si        5.35666005661861    7.34215262508081    6.79368138158558
Si       10.65082028893197    3.55459298930468    8.50726532307836
B         8.94350502626206    5.76717059715481    5.45988108901413
C         5.25207407871035    3.26395236555689    6.08519024000127
C         5.29012400520836    4.39914887959543    6.94479377432918
C         5.45782272688434    5.57157582070490    6.16262807353128
C         5.60384659196887    5.14824190239523    4.82189502752554
C         5.51559443723176    3.74239539320641    4.76887403323272
C         7.34878873691709    1.76297792204784    6.76578334594217
C         8.00044349956644    2.45992017301616    7.82348716200493
C         9.31199303410053    2.81300143898947    7.41136411415512
C         9.43969751006814    2.40129694573349    6.06517060690838
C         8.23726467713553    1.79287491225865    5.65189818345565
C         4.98914496539316    0.18500287088575    5.33226538000872
C         4.66562571525172    1.09480369529051    8.32854685522577
C         6.63886734552004    7.60847198261343    8.18660792996770
C         5.66875682217517    8.56341256972162    5.36040342683338
C         3.59831184504593    7.61830064225274    7.49913278392812
C        10.02977873137147    5.19288697312828    9.27267002432304
C        12.23455040024634    3.85653272834338    7.48552897432752
C        11.02247426473954    2.30746529440561    9.91161010177511
H         8.36693435452353    5.49702552458719    6.63921156873353
H         8.54113403716245    4.83813278940289    4.64908412874197
H         8.56074968167817    6.82557097985250    5.08536790995051
H        10.12083763315002    5.70786375218978    5.59172498407073
H         5.00686017772497    4.39318455739706    7.99114512213305
H         5.67848605940183    5.80864997319188    3.96567714449930
H         5.44806263328255    3.15050332896778    3.86353057280089
H         7.64325847609833    2.50785099095209    8.84587086470632
H        10.34954341788183    2.46322807675412    5.47939278488492
H         8.09171036074391    1.25599415930181    4.72178982161608
H         5.29221953870733   -0.81022573122425    5.63909829333415
H         5.44767990499542    0.39057805389404    4.37107763639466
H         3.91362279671897    0.17513685700896    5.19219506243304
H         6.46271797644979    8.53967457160068    8.71643900485375
H         7.64722261730774    7.63970401351844    7.78362753227708
H         6.60175499681504    6.80267243924733    8.91482956027090
H         5.67195443367628    9.58802763326721    5.71803112162241
H         6.62957032959732    8.37480472041659    4.89041004261769
H         4.90234066477907    8.48694530208026    4.59506015283505
H         3.48208722912519    8.63873018962525    7.84936514446502
H         3.39601760816619    6.95867354493833    8.33705625106222
H         2.83390487727825    7.43875347439044    6.74950555366676
H        10.67088767613280    5.52037178067997   10.08546273920043
H         9.02344171860503    5.08552596106285    9.66873209180495
H        10.00580936921097    5.98329839149559    8.52785601666323
H        13.00005972723680    4.33354034920952    8.08901404799604
H        12.64946780279825    2.92770382851442    7.10589318296488
H        12.03272193275845    4.50331580550190    6.63665893062976
H        11.81400593513885    2.67907027294486   10.55412628792930
H        11.34105972702536    1.34667063803513    9.51934729615875
H        10.14962815276928    2.13392616245173   10.53302994624663
H         4.94351635618620    1.81927900185859    9.08641615451611
H         4.95852615240750    0.11262394178139    8.68319667557534
H         3.58489228570562    1.10521637466026    8.23804328852173

