28
CSD_code = PEBXAV | q = 0 | S = 0 | Stoichiometry = C7H12Cl4O4Ti | MND = 6
Ti       -0.71125563734503   12.09992403472949    3.38303809119710
Cl        0.48392065614503   10.35809857416782    3.74887321763111
Cl        0.69760593126512   13.25524385554242    2.25284641912146
Cl       -0.37054048955251   13.10354788494881    5.36984557346056
Cl       -1.93539456867306   11.30263362588138    1.67099416232341
O        -2.30203191595384   11.26754197725927    4.50844538952954
O        -2.12691390661101   13.67139755334553    3.26260172702116
O        -4.20294600734365   11.15574809638661    5.65928285405778
O        -3.93175807557066   14.88955052079343    3.72028430430505
C        -3.46923251392436   11.58680113017970    4.67330328485977
C        -3.31156646219224   13.75736690637430    3.54646327476832
C        -3.56584993267250   10.27462355107622    6.61395685491684
C        -2.65309855319803   11.04584431021192    7.55326338741242
C        -3.14309692304393   16.09585686624985    3.59140908885239
C        -2.27028868893561   16.31889473553111    4.81583325217595
C        -4.18825108378559   12.53501516850461    3.73394111173805
H        -2.99915852205017    9.51712883844218    6.06359543162084
H        -4.39797196700166    9.81320396779751    7.14769502208428
H        -2.22685186679709   10.35842847706863    8.27768678196534
H        -1.83965727745693   11.51771636247795    7.00203117730019
H        -3.21353642152213   11.81275160847916    8.08210925030471
H        -3.88435552207358   16.88776661379701    3.47380953317151
H        -2.52730096236484   16.01333137926271    2.69037056970445
H        -1.54848587103859   15.51006201547497    4.93071700245577
H        -1.72770856489075   17.25189520252713    4.69836771994613
H        -2.88183112713628   16.37762832742590    5.71281471193212
H        -4.23628570853806   12.03206931611598    2.75594993768791
H        -5.17955801773930   12.79692909994716    4.09937086845613

