68
CSD_code = PEBZIG | q = 0 | S = 0 | Stoichiometry = C28H35CrO3P | MND = 9
Cr        2.80079603734271   10.49430970560767    9.72854083247172
P         1.42846997593685    6.39063359866780    8.75930506201691
O         0.70407234240704    9.79250535712378   11.71961326814916
O         2.27922874623033   13.11863351308273   11.03007599518988
O         4.38528337874262   10.23832758362531   12.23425295580897
C         2.10663402802947    4.82669067609569    9.44022334018598
C         2.46185498328266    4.76366169257471   10.79776228934517
C         3.32448236248859    3.74837340611122   11.19934843482841
C         3.77530172911471    2.76799228465842   10.33572753665545
C         3.25851197279930    2.76343152772110    9.04684296643793
C         2.42099222001403    3.76055549063512    8.57457708908492
C         2.89039241035026    7.25598500804105    8.73682010738689
C         2.99435431072354    8.63603920030641    8.37807658655028
C         1.86041974050910    9.40240698029708    7.99067074228407
C         1.98312864843670   10.73176411160755    7.59700750508825
C         3.23693740696468   11.36677704409948    7.65748511617664
C         4.36792632692050   10.64254839623931    8.04541169494949
C         4.24065061522222    9.30281810648469    8.43343678774968
C         1.94039992479379    5.70907920605899   11.88578438175785
C         0.55596016817414    6.28010609872962   11.55980567054052
C         2.92884468686835    6.86136169596302   12.11171661096288
C         1.78662596061057    4.94437986097583   13.21551498354944
C         4.75851902699456    1.68451397898760   10.75040411235971
C         5.24208338788990    1.84512321707654   12.19431161093495
C         4.07790369443711    0.31417265562415   10.62419924861539
C         5.98439308123738    1.74381712455701    9.82805727320920
C         1.84276475627494    3.64312249293523    7.16138027678890
C         2.11436414780903    2.26741084610918    6.53333888944192
C         2.45441447509078    4.69093326809189    6.22209500328318
C         0.31728980335963    3.80050513192384    7.21890839136681
C         1.49398358749559   10.02818486236299   10.90814733823384
C         2.48487700021073   12.12421453436875   10.47842826684641
C         3.81106752924190   10.31812846499110   11.23372430012651
H         3.66103987062489    3.73588036187450   12.21865493996006
H         3.54395138840564    1.96068226845520    8.39163172080439
H         3.80773432266040    6.75935240006888    9.03666290878564
H         0.90672139149693    8.89212683410702    7.89314738683443
H         1.12377233473192   11.26765352627842    7.21208034016685
H         3.34100317170743   12.38647267495540    7.30583661825981
H         5.34795250100348   11.10357065031508    8.01103725910104
H         5.13092175775450    8.73134556694754    8.67673950407510
H         0.61021886271964    7.10165963371877   10.84531355273414
H        -0.10236623953829    5.50593909763637   11.16780322100171
H         0.10577348025832    6.69294635471417   12.45973961182983
H         3.92799424730853    6.47674025242581   12.30567248577172
H         2.97150650256934    7.52304770258109   11.24813032149989
H         2.61565752495167    7.45631983785475   12.96606462148979
H         1.25736006450038    4.00612134904646   13.06354739557903
H         2.74550843400046    4.73787768432502   13.68215106921175
H         1.21809876018921    5.54955387203849   13.91747787358276
H         5.72958731872650    2.80647835311244   12.33986079939281
H         4.41726894499105    1.75170422882132   12.89701567743595
H         5.96512301833164    1.06455890828648   12.42256617143896
H         3.18630412074185    0.27894019904355   11.24694024554191
H         3.78516052888952    0.10831430531653    9.59827468225901
H         4.75652306488022   -0.47222054061045   10.94776716639955
H         5.70931465170876    1.58007455566508    8.78972158818797
H         6.46492237255495    2.71717671609701    9.90428368638197
H         6.70520342197341    0.98026508637524   10.11278486688503
H         3.17204720345902    2.12200308419148    6.32585612017489
H         1.75599330453870    1.46359393113483    7.17217988933017
H         1.58382717767563    2.20115555629052    5.58538580484921
H         2.12464240159278    5.69644232737059    6.47842219008730
H         3.54108261415999    4.65910535817508    6.27630946738391
H         2.15258967130468    4.49092212819400    5.19587861389270
H        -0.10945842657514    3.04901213009594    7.88022805103679
H         0.02405137480108    4.78326215817303    7.58154377216414
H        -0.10845960518603    3.67001432522159    6.22599570808314

