87
CSD_code = PECFAE | q = 0 | S = 0 | Stoichiometry = C40H40Cl2O2P2W | MND = 6
W         6.99396951295738    2.55375995114173    3.97493471481518
Cl        7.82759987723995    4.88517834694234    4.04032964978052
Cl        6.19288558275204    0.23704275116536    3.92470795836287
P         8.92926060754413    2.02607609864198    2.61438699956636
P         5.13031550239073    3.32510010290384    5.31573585795944
O         6.05545669152489    2.95105584389351    2.51248126417261
O         7.94597214575028    2.21564286550094    5.44164206414202
C         5.47066072295369    3.46240115546564    1.43471145649717
C         5.75461210011144    4.77792237784652    1.05528501227325
C         5.16508034675526    5.30657493791735   -0.07400475855466
C         4.28477265922858    4.55557569841945   -0.84530913202819
C         4.00071470761682    3.25274438815260   -0.45323576538686
C         4.58144172274846    2.70207480117614    0.67087961365016
C         3.67549272853746    5.12875306366352   -2.08915120947490
C         8.39034975034080    2.22691033909162    0.89508511067402
C         8.67836970087088    3.34694941580316    0.12522116909371
C         8.12695133945288    3.47347869531242   -1.13897500440732
C         7.29108376718275    2.48980424520142   -1.63725589132822
C         6.99061705546201    1.37710626238232   -0.86633458631851
C         7.52757430501176    1.24874618628891    0.39999505021419
C         9.68577024976806    0.36677172401471    2.61429871383696
C        10.37513421664546   -0.14204720480068    1.51950667606049
C        10.93717363358746   -1.40339006346888    1.58793733513541
C        10.81751801889116   -2.15713374868969    2.74509427607568
C        10.13242712651425   -1.65208507362270    3.83801672337558
C         9.56476978569217   -0.39280387393549    3.77177688103225
C        10.43865776350943    3.06420785678607    2.76857841920442
C         8.68773815401300    2.16690737051494    6.54254204357075
C         9.37226491538327    3.30892371950681    6.96676744643070
C        10.12579502651676    3.26501622372530    8.12209128236622
C        10.22255101687115    2.10023796618056    8.87372521151065
C         9.54697985147100    0.96586995835160    8.43606193507470
C         8.78471596751179    0.98756900776772    7.28703874039918
C        11.04510154198101    2.05221444976700   10.12599542015500
C         5.66793101220398    3.19792718237706    7.04207652586570
C         5.66415729807006    1.92595952030450    7.61358469375783
C         6.16443499031618    1.73815186265977    8.88782560944582
C         6.69131857356013    2.81055395942627    9.59069670771734
C         6.72016011383932    4.06928015903609    9.01585516795907
C         6.21173637457076    4.26766374118692    7.74338876144083
C         3.50617055835766    2.49548126158302    5.31779298352149
C         3.14571356098518    1.79743126096687    4.17140718158409
C         1.91620195857800    1.16831253644713    4.09988739701177
C         1.04655346696924    1.23173804468230    5.17624844359980
C         1.40427840299785    1.92502077172203    6.32214546865075
C         2.63057601188297    2.55933895664148    6.39574920781916
C         4.58746864168835    5.07003952849707    5.11277068074372
H         6.44119886986692    5.35294032166224    1.66298076981137
H         5.39296856128326    6.32223890312558   -0.36406917294630
H         3.31619210425226    2.65787327775428   -1.04094042674373
H         4.37356433864803    1.68364443324681    0.96930137318501
H         4.30442552550733    4.90195812934805   -2.95089663889783
H         2.69125669670270    4.70340916868656   -2.27118777179553
H         3.58517100422294    6.20979086898288   -2.01479262267842
H         9.32008733228776    4.12357056817804    0.51457328786863
H         8.34809087386264    4.34735532893666   -1.73396333399330
H         6.86377108915031    2.59324588096334   -2.62352518777964
H         6.32872184162250    0.61576263382841   -1.25160776954947
H         7.28079784498978    0.39708431129760    1.02432942294695
H        10.45951170618834    0.44763206606482    0.61643730335005
H        11.46809527067491   -1.80248295035500    0.73574243527017
H        11.25514546188206   -3.14359454794727    2.79118256934330
H        10.03401689100130   -2.24312459758162    4.73638314984383
H         9.00509928125432    0.00897593086464    4.60893168572036
H        11.13487427486311    2.86359552998562    1.95443485012964
H        10.15073687645767    4.11532178655390    2.78505201955759
H        10.91334862849551    2.82325738970906    3.72183200375740
H         9.28505631838286    4.21177603378088    6.37650461740594
H        10.64634913334167    4.15431898934819    8.44740367981925
H         9.61569029020357    0.05311876282059    9.01056448649807
H         8.24250151312944    0.11317695440005    6.95282960869378
H        11.95909455787535    1.48298331190527    9.95532196542792
H        10.49500906033533    1.56333038053311   10.92794101430411
H        11.32127866234347    3.05281736641415   10.44828128204111
H         5.27178186195255    1.09201086245624    7.04307365241755
H         6.15407495455368    0.75361882459235    9.33157536488986
H         7.08995405171482    2.66158092199156   10.58306126590426
H         7.14585030558898    4.90086557870314    9.55782303977197
H         6.25095870596707    5.24809448013210    7.29182011230143
H         3.85025313422932    1.73860204977806    3.34924534120699
H         1.63888833812072    0.62177205611804    3.21080213370775
H         0.08861239507238    0.73513019219288    5.12616919283705
H         0.72496440616264    1.96874916106060    7.16122791181224
H         2.91739153952566    3.09666490128749    7.28985444190566
H         5.46371783709754    5.71737287726151    5.08106595919942
H         4.06619753410583    5.14880446937829    4.15649519852344
H         3.91602186818514    5.36450276798292    5.91915227789393

