40
CSD_code = PECHOV | q = 1 | S = 0 | Stoichiometry = C12H20CoN4O3(1+) | MND = 6
Co        2.98988812856455   12.74793216853572   -4.22019379035775
O         3.36868633866227   14.51940235781824   -4.19186408238514
O         1.90171390777082   13.60594338996427   -5.39387893317790
N         4.25533374590807   12.32715143121824   -2.65847207830902
H         4.93414727363552   11.56777830612755   -2.67857215097949
H         4.79523872014719   13.19455367066032   -2.64407403179658
O         2.20589247022523   15.83141716561060   -5.61647372840442
C         2.46849198419650   14.77558927392433   -5.12738101912408
N         1.64825140673254   13.02704104029870   -2.80770510244452
H         1.13405950206017   13.86933327870456   -3.07007198143353
N         4.23075388641391   12.50141784294994   -5.64067218769988
N         2.22431157340627   10.89384590864458   -4.34287519024827
H         2.55922550506034   10.30414706229706   -3.58018446943596
C         5.86670295731042   12.60961847576979   -7.88615287714843
H         6.48837707119651   12.66165499940674   -8.76581001347703
C         6.22335616501525   13.26587936046274   -6.71827704944184
H         7.13058832908510   13.84315574532166   -6.65207963781338
C         2.58995162199581   11.09185926623698   -6.78919092203768
H         2.53019122564804   10.51182351458886   -7.70881930190684
H         1.77044952027164   11.81386146748557   -6.78455121977097
C         3.87949683962746   11.85563125886223   -6.76221156599034
C         5.37936399164133   13.18716348692300   -5.62904508123170
H         5.62028242919579   13.72590353946419   -4.72526298366150
C         2.45544790369517   10.15237531188268   -5.59158880985867
H         1.62951738239116    9.45625670046592   -5.77208686692386
H         3.37625219515329    9.57200936303762   -5.49002877306980
C         4.68604581625529   11.89111139453481   -7.89492938025023
H         4.36965904561338   11.36827638535046   -8.78328857829591
C         0.79471956258224   11.13902583329937   -4.08145821006167
H         0.23001316875868   10.20104583780923   -4.03067456729511
H         0.39703636326320   11.75417280301173   -4.89051731521996
C         3.48261105662045   12.27898269158588   -1.40390871042890
H         4.09882546439122   12.52573842060765   -0.53373172193448
H         3.09625706008860   11.26618647839725   -1.26421743131425
C         0.69797686282653   11.89957151957903   -2.76227730796680
H        -0.32511920689965   12.24573351728504   -2.59750840270009
H         0.96878080646374   11.23683939700534   -1.93612394181058
C         2.33923739353727   13.28313465400004   -1.53697158369705
H         1.65570568747524   13.21749768391874   -0.68459854658383
H         2.75537884401342   14.29213799695345   -1.57987045431226

