31
CSD_code = PECHEL | q = -1 | S = 0 | Stoichiometry = C14H10AuN2S4(1-) | MND = 4
Au        4.45516711976739    4.33245781415418    5.33586262196823
S         3.53994906556009    2.61403099190821    4.07906676072226
S         4.13682761261264    5.78810060416620    3.55753092924882
N         2.50391057274803    7.34714889179217   -0.14290675922256
C         3.18550677521969    3.43342244675953    2.59421073416215
C         3.41851096558028    4.72902585526920    2.33788396384461
C         3.08316105577044    5.35287898082621    1.06562053654778
C         2.83228119955282    6.72762991813746    0.97284314742348
C         2.40989577519510    6.63199092384203   -1.25317377651867
C         2.65101690711582    5.26766015109645   -1.29400258458351
C         2.99599637846329    4.62102059608596   -0.12165674740779
H         2.71012342487380    2.78300164443331    1.87631688521275
H         2.90229069134023    7.34650923283637    1.85685903204202
H         2.13595680937148    7.18284776489977   -2.14485657952579
H         2.57944617865995    4.72329642090210   -2.22494760708534
H         3.21247029056709    3.56257329228341   -0.12656836365402
S         5.37556232688803    6.05181372644071    6.59210860756890
S         4.77906766373210    2.87816731172035    7.11352199574507
N         6.41069104679201    1.31882042509805   10.81437736491393
C         5.72924948058278    5.23285184454216    8.07740787524213
C         5.49637105219104    3.93721530512002    8.33373872006712
C         5.83167896473773    3.31322178624493    9.60595067804483
C         6.08245595528813    1.93844685561732    9.69864684520274
C         6.50468464402275    2.03390160416630   11.92468957589711
C         6.26360507272083    3.39823748645584   11.96559383430551
C         5.91876285594523    4.04498179638107   10.79327337943444
H         6.20468547961639    5.88328355849273    8.79525725313850
H         6.01243499450714    1.31962668129294    8.81458837525009
H         6.77854773750891    1.48297350269247   12.81635033823078
H         6.33511218456815    3.94253799998381   12.89657583061872
H         5.70227971850076    5.10342458635935   10.79823713316672

