68
CSD_code = PECKAK | q = 0 | S = 0 | Stoichiometry = C30H30AuN3P2S2 | MND = 2
Au        2.82476235480639    9.16022673749019    4.69460022315652
S         4.99121169554335    8.98349993551659    5.52536812932691
S         0.61253231153162    9.13241949259423    3.99223598003122
P         3.20294890285868    6.52854417482714    5.76275062959770
P         1.90212612287930    6.37482248364166    3.16741081707943
N         3.17359109623844    6.40814935287813    4.15213236644638
N         5.14159613647781    6.91532721845614    7.31901586190390
N        -0.37159375728830    7.06091993239803    2.54387538641942
C         4.61098911406094    7.49901159779192    6.32399397063048
C         0.54008929554428    7.58330298680721    3.26075845266018
C        -1.56523306741107    7.78318450946704    2.20424259895224
H        -1.84478226444116    8.46780995713513    3.01483482241928
H        -2.35966476324401    7.04504359683130    2.05506424710860
C        -1.35124910785831    8.58132146459857    0.91931851718085
H        -2.26864393190709    9.09537130461363    0.64569693718635
H        -1.05674967064390    7.91892250200475    0.10840320958519
H        -0.56533360733047    9.31730936869196    1.07209053943885
C         3.53721028453353    4.85486363688580    6.34831556683829
C         2.82514676313501    4.22003568060811    7.35470691791961
H         2.03462363448605    4.74277557070551    7.87507098829446
C         3.14110568791075    2.91370009118184    7.68741730000056
H         2.58959801224457    2.41159501512542    8.46901039787799
C         4.16042695974963    2.25110501362719    7.02469647237492
H         4.40090214933000    1.23205613751394    7.29038417261215
C         4.87745622453156    2.89166433961514    6.02482301364430
H         5.67768700924221    2.37409372776505    5.51595150498798
C         4.56499879080670    4.19217293318979    5.68457905207790
H         5.10649850257164    4.71687566174952    4.90785701017729
C         1.67866116121834    7.03552963738578    6.58356370565346
C         0.50671748461598    6.40929647296430    6.17555109740895
H         0.55523060626053    5.62392004573397    5.42908350792116
C        -0.70042675518052    6.79272738589087    6.72982286663667
H        -1.61608463081453    6.32083964403900    6.40518041412174
C        -0.73048360415927    7.78863145337404    7.69303188956778
H        -1.67504894854499    8.09824055370362    8.11453695233905
C         0.44416670049647    8.39015233623674    8.11917060461821
H         0.41397547032463    9.15937348646272    8.87624354744204
C         1.65585929655601    8.01738341309177    7.56759940865536
H         2.58022046781948    8.48054302698323    7.88528544536592
C         1.25332271860579    4.68251310132322    3.12568912458054
C        -0.05748134736565    4.27637939414826    3.33053619778284
H        -0.83598518820633    5.01571505750734    3.44135902957144
C        -0.35034151570124    2.92391740278306    3.36916807961686
H        -1.36932884461429    2.60357432229216    3.52996172622513
C         0.65307875972493    1.98267945107804    3.20663964476561
H         0.41495745297547    0.92997025131410    3.24299191263053
C         1.96123714813207    2.38926353545085    2.99497736486841
H         2.74410407184034    1.65706729056673    2.86438817500574
C         2.26145274471217    3.73684738300376    2.95539420312671
H         3.27795936663968    4.07556382987411    2.79983934013318
C         2.59975279066064    6.68508210147515    1.54179671448307
C         1.84515311473553    6.35960636424753    0.41941426149519
H         0.87524090621158    5.90108635269914    0.55572532292095
C         2.34552179392243    6.63872521022499   -0.83760694274481
H         1.76935187052772    6.38880152882268   -1.71647237228298
C         3.58727287413293    7.24343982594738   -0.97087974804529
H         3.97320855116977    7.46359838252060   -1.95536407010770
C         4.33315122326662    7.56925570995789    0.15017254317847
H         5.29722510149642    8.04335681722426    0.04095271186769
C         3.84188281964881    7.29301537880252    1.41416020924798
H         4.41087357550954    7.54183559495351    2.29914537742332
C         6.29795773020272    7.45503890157058    7.97238188569325
H         6.38213013568709    8.53707748720393    7.80331355901270
H         6.18038615451010    7.25667547432465    9.04223516036115
C         7.55382812442523    6.75657248014633    7.45416834914185
H         8.42589544388107    7.11042795198131    7.99749500290348
H         7.68374417351983    6.97297731494708    6.39630874483889
H         7.46041012278854    5.68067422402177    7.58393396664767

