46
CSD_code = PECNUG | q = 0 | S = 0 | Stoichiometry = C14H21MoNO8S | MND = 6
C         6.15184309100696    6.76528899366560    0.22625375242171
O         5.42706023053846    5.57011703463390    0.07019843529647
C         4.71032491068630    5.39139254379977   -1.07238955997580
C         4.55786168199143    6.31697139618081   -2.08118937565244
C         3.77834662007993    6.02227936531538   -3.20527446466625
C         3.15452605033301    4.80980083677690   -3.31922494204338
C         3.28945419716412    3.83371675212881   -2.31094351278191
C         4.07430709099876    4.11255372135358   -1.16785258871524
C         2.62794984596022    2.57436047714800   -2.45767451334754
N         2.70485087642898    1.59908210753396   -1.62262141830227
C         2.02605031383021    0.35244514615723   -1.90716127384068
C         2.65313783517374   -0.38000513470412   -3.12894690303752
O         4.75994891928404    0.69263441067857   -0.01047105777123
Mo        3.48755582149937    1.65171361501874    0.42532304475758
O         4.22828386795984    3.24920718055161   -0.21541859368658
O         1.71241906594856    3.02330837082796    0.52044276181217
S         1.70382264335464    3.37275682379355    1.98920733636072
C         0.24559699967093    4.55122292469393    1.95057482747004
C         2.90913533306579    4.73547990079286    2.14648306272460
O         3.41848951176426    2.06180290496865    2.05120601038112
O         2.21560637304778    0.34638743780735    0.46157437020769
O        -0.12433383541024   -0.63586722303201   -2.31310786816723
O         2.99254288449312    0.45906028202506   -4.19981467417360
C         0.52020398375736    0.60260619493789   -2.13271092399908
C         2.18422116278870   -0.50239477716772   -0.62330241655282
H         6.67300113986022    6.66990439367810    1.17707579368551
H         5.48900862062153    7.63670873326050    0.26255253722474
H         6.88388093964470    6.89902775701714   -0.57641371640893
H         5.03471971365659    7.28242718701010   -2.01863424443701
H         3.67604351099706    6.76529187068616   -3.98057072443389
H         2.55494311340104    4.58174717135673   -4.18779228739547
H         2.04325308015520    2.47166260407265   -3.37459696005114
H         3.53052528956423   -0.93922091911410   -2.78679813435653
H         1.90649353603125   -1.08265008591453   -3.50559975412576
H        -0.64474952237150    3.95119048624975    1.80152623567394
H         0.34446722581259    5.25730104805867    1.13553585144884
H         0.17629855744442    5.06878381245522    2.89969162425571
H         3.90326383587322    4.30205870734434    2.06636986448871
H         2.77506464323624    5.20050250295378    3.11699351775963
H         2.73392154750760    5.44869419747175    1.34725501301234
H        -1.07623033850164   -0.49202292256510   -2.32390151385413
H         3.82410007518737    0.90271021392169   -3.99609264421951
H         0.13935554426143    1.13217974303729   -1.24628155973415
H         0.37035800737234    1.23269423561827   -3.02028584264117
H         1.34744873417496   -1.21239176409240   -0.54655383373302
H         3.14452727067370   -1.04982025839397   -0.66033873688501

