48
CSD_code = PECNAM | q = 0 | S = 0 | Stoichiometry = C10H21MoO12P3Si | MND = 6
Mo        0.81328419042763    2.48444830373678    3.52803886858822
Si       -2.82781953127405    2.91105262614702    3.87644920612157
P        -0.37674240888539    3.53259184076845    5.24571056247704
P        -0.74706942931926    3.38407446796503    2.05445031808210
P        -0.84429614192651    0.86018697046613    3.84609089129873
O        -0.11007024119846    2.98617051756512    6.69611861389610
C        -0.71296116553307    3.56239448817969    7.85623080479261
O        -0.22013426845388    5.10728376940351    5.51204781558970
C        -0.33112479403590    6.03010798292065    4.44564129845645
O        -2.02967944047631    3.48383305336712    5.17228377726505
O        -1.06788169796072    2.28380272249696    0.91675723492926
C        -2.08911383914206    2.51332659353701   -0.04980326536722
O        -0.61525920848613    4.76529512923283    1.24224603256167
C         0.60952148190074    5.05656075744897    0.59277805588787
O        -2.23409285058678    3.72576347947631    2.57856985939399
O        -0.97163001125408   -0.56022733418839    3.13312427310083
C        -0.86834665934411   -0.73626159848085    1.73089322407478
O        -0.82350005652853    0.39530174359511    5.35807473840415
C        -1.71393141721276   -0.59825264807649    5.86523793640146
O        -2.42036366887947    1.34537965196040    3.68480996844807
C        -4.67842396034016    3.15168874912554    4.02156239838708
C         1.73896531381889    1.59768525459665    2.08225750461652
O         2.29354198025934    1.10546125760053    1.21116424652440
C         1.91564852111109    1.58915665484345    4.84521812261022
O         2.51778565309123    1.04806917163986    5.64391467159572
C         2.12906752313126    3.89405160669145    3.44200388552099
O         2.91818257013863    4.72361636128135    3.42008604515644
H        -0.25431473612260    4.52570712967878    8.07984933977107
H        -0.52977759169806    2.86457069315358    8.67243152464238
H        -1.78534921662555    3.69498234234650    7.70807145549943
H        -0.20366501112527    7.02202300140530    4.87966277307233
H        -1.31028502679636    5.96109069780050    3.96448151167362
H         0.44883928296969    5.85468628306523    3.70008640072561
H        -3.02803217536175    2.07259424190767    0.29130845011614
H        -1.77017973378092    2.03495983624573   -0.97611361104167
H        -2.23688560657077    3.58317076763171   -0.21230794813108
H         0.82140519196952    6.11638926386518    0.73981972754024
H         0.52241928810485    4.84717324200206   -0.47528350467850
H         1.42672395895072    4.45623402396095    1.00636075923793
H        -0.60263519964014   -1.78104452029471    1.56679657566148
H        -0.09912373660805   -0.08779291780162    1.30902971918438
H        -1.82371733996014   -0.51827987082847    1.24994713262522
H        -1.64575773349202   -0.54280107142305    6.95108457534316
H        -1.40846604245521   -1.58740372957559    5.52321910600381
H        -2.73788938485718   -0.40109768426466    5.54318951159846
H        -5.02101281786451    2.86502591825466    5.00535409364791
H        -5.20144556742293    2.55252397867238    3.28985039277176
H        -4.93490724466144    4.18872680089996    3.85960492592334

