102
CSD_code = PECQET | q = 0 | S = 0 | Stoichiometry = C37H48O16Pd | MND = 6
Pd        1.33155252247777    1.33164416675061   42.36536819136003
C         1.44468123157942    3.35821471794226   42.64506642013034
C         2.85638493273502    3.91486490829704   42.42654689381843
C         0.30786117616572    3.92854811647177   41.89600366177152
O        -0.56368767860711    4.66805782064109   42.27731141302642
O         0.28684665440196    3.34308602340900   40.66363213223997
C        -0.68684140744376    3.78025268759678   39.73088642244152
H        -1.64803549567341    3.93910322259828   40.24222262740171
C        -0.24707506542758    5.08437760909140   39.06268831299996
H        -0.19360722400867    5.86098994394011   39.82166285568925
H        -0.96195572451789    5.36241210160328   38.29346360138113
H         0.74151324665656    4.95988449438539   38.62564908282951
C        -0.85176745365054    2.69779685778444   38.67395180671153
O        -1.67968105082362    2.73736076929305   37.80231022551126
O         0.04592718537735    1.72452309707098   38.81133792002007
C         0.06961289983825    0.73221563764757   37.79397709165089
H         1.08424408841026    0.34107216691424   37.76223343558704
H        -0.20029526362132    1.17396995317290   36.83292001680085
H        -0.63832593165069   -0.06732517211851   38.02463008651870
C         3.02515180882823    5.10270824608236   41.57088538018027
O         2.15721276806996    5.88523234263343   41.24499565614615
O         4.29074543633486    5.24530464847546   41.15147669178233
C         4.53539132807755    6.39791227471389   40.35275514641324
H         4.54242492596290    7.28715632494243   40.99578586331452
C         5.87331457162475    6.20426892993325   39.65196620322098
H         6.63787421204873    5.97838517762425   40.39004961470577
H         6.14425393816623    7.10769655246456   39.11295589409004
H         5.80072364482078    5.37483170459280   38.95273156715261
C         3.41991265452171    6.57003441717874   39.31535912885933
O         3.05326732373101    5.69757102147763   38.57114135678135
O         3.02765815081538    7.83724144541102   39.25855346749003
C         1.99979632875354    8.15104111641914   38.32596960313796
H         2.08273363203139    9.21592617477620   38.12217113451720
H         1.02779587812160    7.92184184701424   38.76483943461626
H         2.12919397103752    7.56812680339157   37.41218541373650
C         2.10002305394223    4.07687658591867   43.76707565978752
C         1.64823851345361    5.46756789350142   44.16184926009770
H         2.44828915301301    5.96945097097390   44.70427964267238
H         0.77609611278115    5.39529352269121   44.80832595432383
H         1.37142344453671    6.06364732080183   43.29951510473989
C         2.53211292802318    3.26186639225852   44.96939081936204
H         3.52056248971806    3.54363250458090   45.32269386287879
H         2.52812523352449    2.19607374736393   44.73813230875351
H         1.82537925615933    3.44121907618220   45.77858232132658
C        -0.44535357388667    0.60315964040379   43.53318836204140
H        -0.47178352650587    1.10522426964854   44.49259605891103
C        -0.91536410156035    1.05208736251150   42.34245437876341
H        -1.45054305512849    1.96973589141238   42.14809825253185
C        -0.13677529777325   -0.88679145859482   43.34843418099711
H        -0.03662790330093   -1.47937621057296   44.25402400276656
C        -1.26214903448309   -1.26196864196584   42.36549808294764
H        -1.14927788576981   -2.26092179117010   41.94322898397536
C         3.91482509491212    2.85641712488545   42.30423313596481
C         3.35815705466119    1.44471702877240   42.08569995515816
C         0.60302187720661   -0.44536514852837   41.19775959858827
H         1.10506838492968   -0.47187237830104   40.23834637365272
C         1.05195657075631   -0.91531561089396   42.38851446247437
H         1.96957999756197   -1.45053590042315   42.58288110647249
C        -0.88689734523483   -0.13664459198584   41.38253499651699
H        -1.47948642681474   -0.03647147237118   40.47695223651625
H        -2.26108762795754   -1.14900695332869   42.78778049326722
C         3.92849929243642    0.30785922625773   42.83469577789323
O         4.66799834215812   -0.56367628823493   42.45333219352588
O         3.34315886832620    0.28684420854744   44.06713236289477
C         3.78037697944953   -0.68691025819835   44.99978654223135
H         3.93912204073103   -1.64810099621619   44.48838460730193
C         5.08453256184494   -0.24719281598270   45.66792544070475
H         5.86103573271569   -0.19365289297584   44.90884575292723
H         5.36265577661829   -0.96214272088570   46.43705642504442
H         4.96006708240894    0.74135856156948   46.10506804783374
C         2.69815982706661   -0.85163953332702   46.05699641019318
O         2.73756980712124   -1.67986651941755   46.92834937735166
O         1.72474821619142    0.04589284088665   45.91955306674333
C         0.73235035416111    0.06937995791058   46.93681260892941
H         0.34138691702171    1.08401506385315   46.96893135479782
H         1.17393176680761   -0.20093674075359   47.89778563676666
H        -0.06732098997160   -0.63825705982700   46.70592216055947
C         4.07682098243624    2.10006727594548   40.96369621662605
C         5.10267528897501    3.02517249359711   43.15988831010452
O         5.88519919907262    2.15722587161569   43.48576373186884
O         5.24524813525515    4.29074905600709   43.57935660144888
C         6.39786053656705    4.53538153699714   44.37807639086766
H         7.28710332766850    4.54240554756232   43.73504409297407
C         6.20424085598309    5.87330473460899   45.07887076569027
H         5.97837288894029    6.63787206138170   44.34079042083285
H         7.10767408529441    6.14422467220112   45.61788212584609
H         5.37480274748784    5.80072744794863   45.77810611184325
C         6.56997722636986    3.41990442801685   45.41547538314650
O         5.69749632154452    3.05323345174833   46.15965877202277
O         7.83718435333688    3.02765154359967   45.47229668784450
C         8.15097084320168    1.99977677901352   46.40487223184215
H         9.21584755002899    2.08272660667883   46.60870699013402
H         7.92180154322658    1.02778096045450   45.96597805836733
H         7.56802597631854    2.12915127440840   47.31863982156514
C         5.46752192349480    1.64832621661064   40.56890335975609
H         5.96940325056480    2.44843331877962   40.02655302464199
H         5.39527161210834    0.77624432513825   39.92234255468549
H         6.06359521201063    1.37144299538024   41.43121951754635
C         3.26180029624593    2.53216669002607   39.76139121250355
H         3.54340688316132    3.52070608062804   39.40821737451116
H         2.19600423015043    2.52796219482575   39.99261617283652
H         3.44130655351959    1.82556108022897   38.95212295527051

