67
CSD_code = PECSUM | q = 0 | S = 0 | Stoichiometry = C26H32N4NiO4 | MND = 6
Ni       -1.00800771322301    2.93989611070887    2.47349289534755
O         0.25027521995849    2.93373289263255    3.77857097807305
O         1.30919944601981    2.86984661107934    7.62655966599162
N         0.30637003263624    1.80656288463337    1.32349853262248
N        -0.05309453872058    4.65224510186437    1.42927340235628
H         0.82600909231714    4.69473481443428    1.94932612776245
C         1.21145756347343    0.78803917881802    3.29984177049427
C         0.86017703512719    1.88342935179215    4.15957594905657
C         1.29597392858613    1.76426173226143    5.52250205549777
C         1.08264655761276    2.87169460249337    6.43603515653965
H         0.68097789651988    3.77723398107023    5.93976529187204
C         1.92306005502383    0.61101580264575    5.98023957107233
H         2.20297873747839    0.58305728108607    7.02416877620568
C         2.20099479327924   -0.46046309145179    5.14590371367979
C         2.85815570260028   -1.70035744828408    5.67324659795220
H         3.60253879745056   -1.44967993788931    6.42558946533708
H         3.33956956920136   -2.25586967729103    4.87182455345934
H         2.11687997480168   -2.35012182298719    6.13958206702712
C         1.85964180810502   -0.33527502771478    3.80866461003175
H         2.10306689647498   -1.13756681088493    3.12382326966099
C         1.02918499017294    0.91609113950303    1.88250744869908
H         1.62684309621307    0.23126638655607    1.26558530320614
C         0.43889862572877    2.01664325489649   -0.09457909325197
H        -0.54950154627110    2.03489222947791   -0.55924397504869
H         1.03388408413118    1.21230907638708   -0.55638377076395
C         1.13443566588690    3.36325309576664   -0.34323343072304
H         2.06033185936583    3.39451526466010    0.23773464654526
H         1.39382664911575    3.42464285332790   -1.40161922509967
C         0.26521418846769    4.56913534664318    0.00542196998114
H         0.78556995782625    5.48394104263609   -0.32890153968062
H        -0.67695022621561    4.49849909212212   -0.54351283747874
C        -0.81514208023601    5.85735342562016    1.73527171418936
H        -1.72127762274716    5.84454494190404    1.12240756028289
H        -0.25067875727027    6.77438922356650    1.49868693195261
O        -2.26622622455172    2.93370388647095    1.16834925385348
O        -3.32519176648018    2.86986536927952   -2.67961223949839
N        -2.32241414228380    1.80657563969411    3.62345606323859
N        -1.96290713262449    4.65225704490559    3.51767351229768
H        -2.84200913983053    4.69473830139938    2.99761772813674
C        -3.22744556856494    0.78803198591179    1.64707964370250
C        -2.87607333861023    1.88337348641965    0.78732025938389
C        -3.31199474732667    1.76426522361055   -0.57556635374723
C        -3.09883020033343    2.87177216574590   -1.48904475588249
H        -2.69685441324416    3.77719490222970   -0.99284626330204
C        -3.93907362503239    0.61101585444702   -1.03330210467309
H        -4.21893255651216    0.58302015084279   -2.07725077953621
C        -4.21698176505029   -0.46046946023585   -0.19896892115843
C        -4.87414808511838   -1.70035665796328   -0.72630741764187
H        -5.61856422858132   -1.44966298371077   -1.47861500102645
H        -5.35551717415683   -2.25589223380899    0.07512700402155
H        -4.13287237290116   -2.35008748356063   -1.19268986967657
C        -3.87561808932662   -0.33528985907932    1.13826311010784
H        -4.11907485170874   -1.13756852381353    1.82311199916657
C        -3.04531322606319    0.91618039771199    3.06443095691369
H        -3.64279057798633    0.23119716138131    3.68134741565706
C        -2.45489243550163    2.01661749317160    5.04154268145105
H        -1.46648805686298    2.03484428270510    5.50620768742613
H        -3.04990810693583    1.21229253507737    5.50332892954482
C        -3.15040210145823    3.36325078444272    5.29016469875771
H        -4.07632041900568    3.39453286318289    4.70923517750618
H        -3.40977051586678    3.42463993792941    6.34854746262047
C        -2.28121227104117    4.56916172191511    4.94152421847978
H        -2.80155839351355    5.48397758641405    5.27584440139123
H        -1.33904241548502    4.49851209920429    5.49045070817065
C        -1.20085382653399    5.85736143060880    3.21167314251184
H        -0.29471183882996    5.84455337825975    3.82452839864307
H        -1.76531613156527    6.77439861712964    3.44825310031181

