41
CSD_code = PECTEW | q = 0 | S = 0 | Stoichiometry = C22H15AuN2S | MND = 4
Au        1.09827573730209    2.07434324329001    3.51186773613649
S         0.82447744001059    2.95594068769218    1.37821213475553
N         1.24225460265152    1.28573648552027    5.30204525756479
N         3.02022572658881    3.32608868193418    2.68039565310514
C         0.28565571967587    3.59907133237402    4.57754797149407
C        -0.21772084228623    4.82255760195418    4.16852760757036
C        -0.71381093726845    5.74025767801015    5.08273927770891
C        -0.71255455779085    5.44725110402577    6.43694335479339
C        -0.21448781591760    4.23773789087712    6.87959577530343
C         0.28441058450768    3.31325808638092    5.96289854659733
C         0.83153053122389    2.02069522144840    6.34430123476422
C         0.97109873503013    1.49621465573428    7.62813096576527
C         1.53290398774491    0.23911643585007    7.78047258736194
C         1.95573337348814   -0.48338238951558    6.67667483094186
C         1.80063028092220    0.07239684403594    5.40789975253828
C         2.18258078460449   -0.50429375823888    4.12835892902051
C         2.77969923506028   -1.75736247763532    3.99703798454057
C         3.11929339663903   -2.23123686856735    2.74521129257840
C         2.86685883706262   -1.45999068853144    1.62219071965447
C         2.27383554095347   -0.21263365283294    1.75002334696934
C         1.91761824293645    0.29147324779978    2.98949529902420
C         2.42173192731932    3.58952904667236    1.51344307562599
C         3.05394741709059    4.31385053616849    0.50058331612551
C         4.33749425072028    4.76091496486547    0.72221815308774
C         4.95931341684193    4.48174897685752    1.93759062297104
C         4.25421150396927    3.76175638598010    2.88136235444177
H        -0.22810454940283    5.06350990183920    3.11472566912082
H        -1.10405367805061    6.68649266813249    4.73603278768199
H        -1.10050211967760    6.16289992449214    7.14734096140435
H        -0.21398030080947    4.01285425741381    7.93643717693157
H         0.64821794458761    2.06081631605130    8.48705893043743
H         1.64549906490087   -0.18031772404484    8.76961615191863
H         2.39821817742564   -1.45850254776847    6.79561353179893
H         2.98014016506564   -2.36051220555872    4.87084093083254
H         3.58159651147597   -3.20248109340282    2.64362753508359
H         3.13171744037032   -1.83092516811979    0.64230625126977
H         2.08083884176914    0.37694816134893    0.86457672322073
H         2.52873038384578    4.50173007073238   -0.42126537047229
H         4.85842954353367    5.32233150550440   -0.03979339368281
H         5.96399680234812    4.81659093743115    2.14023440438584
H         4.68204865354229    3.51402572379913    3.84427992963075

