40
CSD_code = PEDGOV | q = 0 | S = 0 | Stoichiometry = C19H9Cl2F6N3Ni | MND = 5
Ni        2.90126391703717   13.09605096845529   15.84947345668181
Cl        1.56288934889525   13.15108318475186   14.25201043648743
Cl        4.38495113356254   13.15910983751011   17.30211120504338
F         5.63230162600279    9.20844071487433   13.90868978348014
F         8.06128801536817   12.50878389643609   11.65938753437971
F         6.41380695585679   14.45281595829001   12.67321327821095
F         2.88424767513019   15.36035678200756   15.81918190853913
F         1.28946608450104   19.35368378242714   17.72475743814825
F        -0.37420414940768   17.90487469453691   19.33905505274162
N         1.87275179859068   11.40505942238047   16.70608547350388
N         3.86589614196219   11.27782387049326   15.01485645658084
N         1.31044314801116   13.86753732187125   17.32087521181239
C         2.26802770801815   10.19282072243868   16.34323754403291
C         1.62627604214013    9.05221088079422   16.83346924281415
H         1.94860618651365    8.06906512643599   16.52810232489263
C         0.56718989208619    9.21916955213087   17.71259795942796
H         0.05279727494099    8.35728538317445   18.11042685604659
C         0.16583771765576   10.49632037855385   18.07550436793575
H        -0.65573193915358   10.64871211257244   18.75800147915575
C         0.85414321369345   11.58665709163988   17.53842259531256
C         3.38814411838068   10.15946677199955   15.40873057158344
H         3.74727736255853    9.18177935627939   15.09697283372267
C         4.92693824199165   11.47997572432661   14.15808069285386
C         5.79007477599487   10.51270729871718   13.62133869478651
C         6.83899571189063   10.85462723299491   12.78934728587412
H         7.49031256708241   10.09076519633751   12.39566144760010
C         7.04807310953202   12.18339209007637   12.46608435725701
C         6.20798136353213   13.16957504082734   12.98359343564079
C         5.17107916048400   12.81658978916369   13.81755387073521
H         4.51281306767013   13.58239305383583   14.23518030968793
C         0.53290281332797   12.98157568240357   17.81256799927887
H        -0.35959433807598   13.19695980617874   18.40069421962609
C         1.21138841638631   15.22871784489840   17.47681829495442
C         2.06720045302823   16.00538259248359   16.67737768655542
C         2.10452623812275   17.38149768494438   16.73924846176140
H         2.77043218029255   17.95047234819240   16.11094084330557
C         1.26942984565079   18.02177828878152   17.64054014857673
C         0.42063921972384   17.27951550016612   18.46067309490771
C         0.38626127469524   15.90256284054337   18.38423494334534
H        -0.27322337367216   15.36590417507522   19.04690120271779

