53
CSD_code = PEDGAG | q = 0 | S = 0 | Stoichiometry = C20H28O4W | MND = 8
W         1.44389127708459    3.04150209709438    1.50673389946227
O         3.49738146514504    0.67920462406320    1.63258717950614
O         3.39989160723303    4.91490235491806    3.07870866331704
O        -0.55209808538124    5.45231471505632    1.60031894042628
O        -0.57510142986639    1.35671158725191   -0.19506786263853
C         2.76130310335790    1.55005422829496    1.52481532485039
C         2.69033180076206    4.19184954932214    2.54521379868084
C         0.17589718207595    4.57325951676730    1.50980449992790
C         0.14602752769229    1.93866054971544    0.47798494035726
C         1.86096419142029    3.42650451705767   -0.78458900115907
C         2.76143852422221    4.22599290886741   -0.06572457968442
C         4.25248195790540    3.97885519191761   -0.02609481604254
C         4.99486574353099    4.59123692242017   -1.22449775781814
C         4.84072188722193    3.84068808744944   -2.54799214991816
C         3.45770392311174    3.97827611768705   -3.19773907576241
C         2.57760427631352    2.73471146563573   -3.07843237963232
C         2.32402499726378    2.26969496030067   -1.63644812557570
C         0.12260844696196    2.83253986628604    3.46057907870181
C         1.03866432036535    1.77053948853028    3.45374324772609
C         0.59658531013989    0.33581610004995    3.29758504165157
C         0.34806180071382   -0.29953775040461    4.67390696392861
C        -0.54599505743189    0.52419290925939    5.59989718953406
C        -1.93226030284515    0.84191670949909    5.02444698273680
C        -2.10595221580207    2.28682241488256    4.55446592932904
C        -1.36531765462080    2.65541783253142    3.25906135779112
H         0.98951383503095    3.93240521657169   -1.20882392432370
H         2.51482708814831    5.28712462663813    0.01642366502371
H         0.35463389847869    3.67400173977490    4.11758564455028
H         1.90582202946422    1.86906715630675    4.11227540682022
H         4.47902571587528    2.91305045593143    0.02767756162183
H         4.66557963416615    4.44458100738023    0.87219615757238
H         6.05854322020716    4.61346698494573   -0.97384326983074
H         4.67013590470373    5.62580013612545   -1.35776396434319
H         5.07831640197231    2.78633868782450   -2.39823161994664
H         5.59206471876119    4.24091862218157   -3.23272420263579
H         3.57995745752368    4.18626015142401   -4.26319450444339
H         2.93884252389248    4.83288940399093   -2.76246063366143
H         3.03880999729012    1.91203170437352   -3.62961571131719
H         1.61726174613010    2.95071260718477   -3.55313060029528
H         3.23086484772825    1.82722274757536   -1.22551468825806
H         1.56505994049741    1.48450250789873   -1.67640465211528
H         1.36557323549256   -0.25892552294363    2.79848004582909
H        -0.30772727516210    0.27459701800978    2.69300519262017
H         1.30926208669377   -0.44781080841697    5.17226832488795
H        -0.09915617550516   -1.28469068357093    4.52297636875493
H        -0.04093874203481    1.45562080438972    5.85760041638564
H        -0.66246197624966   -0.04395306568247    6.52566693210734
H        -2.68292660226338    0.66421903945142    5.79807475274420
H        -2.15832307746911    0.16191909743570    4.20163759204679
H        -1.79315961715002    2.96449283694180    5.35225863202260
H        -3.17178469041010    2.45698559800042    4.38190258543119
H        -1.79137423696335    3.59941960607543    2.90998509157578
H        -1.57866648541988    1.90252535972632    2.49892611147931

