70
CSD_code = PEDHUC | q = 1 | S = 0 | Stoichiometry = C27H37Cl2NOPRu(1+) | MND = 9
C         8.12228679829829    6.42165294955778    3.15960354988459
C         8.80108215382743    7.15961312911687    2.14771358647740
H         9.53296387985762    7.90513501083435    2.44103552292641
C         8.58128595332883    6.88963899495919    0.79908284835434
H         9.14743710935659    7.42647104499691    0.04335242996860
C         7.66836951495177    5.87542744730352    0.38827524975715
C         6.99926300182220    5.14845064656074    1.38672886845850
H         6.35866009668734    4.31847110899139    1.11199706922040
C         7.22454304218388    5.41956286630868    2.76168050692315
H         6.75604214180143    4.79028590902859    3.51134326275539
C         8.44128158394952    6.67789589528878    4.59884954416382
H         7.87209170524012    6.02238127484001    5.25461985361429
H         8.22246037443620    7.71556016286438    4.85763774980654
H         9.50460272558882    6.51335579771701    4.77486047774370
C         7.54668876523358    5.52036095634348   -1.07363112112090
H         7.97362311557569    6.34169363648809   -1.66108756927632
C         6.09378267573223    5.33635687181302   -1.51147161864388
H         6.05005704450123    5.21098358998642   -2.58982749532914
H         5.50629436509467    6.21368882212019   -1.24288296900707
H         5.64251201530098    4.46075312094132   -1.04997009461350
C         8.36889263156506    4.25493589881769   -1.34110869714348
H         9.40731404357162    4.39834347620744   -1.04903427080691
H         8.33980813089683    4.01474622535709   -2.40036962679233
H         7.96602226054304    3.41101189416630   -0.78471680455160
C         3.49241734924853    9.62743855403155    2.01029326708691
H         4.54047652764235    9.92025848428977    1.88792931719746
H         3.26003733869428    9.66557543321911    3.08097885897567
C         2.53927286357912   10.57235617981301    1.28757589486909
H         2.43072417376453   11.46691606642088    1.90365023710458
H         1.56745327062417   10.07916527857450    1.20725013339428
C         2.99384599712846    9.86734622738869   -1.00283264299807
H         3.81546191998907    9.20715436838199   -0.71376310795314
H         3.18450479871741   10.22132154780897   -2.01344163330755
H         2.04890828350467    9.32934824040888   -0.98318072896092
C         1.93462800490314   11.97771948986973   -0.55160235953933
H         0.94560548971432   11.52250750018175   -0.55869010199572
H         2.17447930183325   12.29925797991185   -1.56337570844371
H         1.91365295329278   12.85397881331063    0.09417825566200
C         4.26641403348029   11.66757218282182   -0.06070849415541
H         5.05147349934766   10.91979032847248    0.07246537907115
H         4.31492177614110   12.40463806420924    0.73723886453702
H         4.43837629832450   12.16261838400974   -1.01362122987276
C         3.54187007917212    5.73613962919869    1.20150269394539
C         3.60909582166595    4.47198084245201    1.77903096804131
H         4.04152382761734    4.35965026737695    2.76466173201835
C         3.10758847623507    3.37461915779563    1.10376937666742
H         3.15371077294648    2.39542995716421    1.55629612439163
C         2.54542059621569    3.53337732505171   -0.15372901884178
H         2.15518561023299    2.67614897466634   -0.68051999688255
C         2.48681153308401    4.78982556384717   -0.73456650340804
H         2.05340061540846    4.91035254673766   -1.71581721498780
C         2.98986360112488    5.89063129339509   -0.06368151232661
H         2.96131275271853    6.87071850295922   -0.51356242907345
C         3.72632092294371    6.88467729822344    3.79595565329262
C         4.60613805852618    6.95017866060088    4.86590076468094
H         5.64814678437428    7.16750539224611    4.68182125212393
C         4.13754362617039    6.76610780979991    6.15562809831537
H         4.82022510817020    6.82000568956606    6.99009594709751
C         2.79259936134895    6.51843219030232    6.37428600058158
H         2.42790666540762    6.37388756210871    7.37973940602987
C         1.91045212250311    6.45926741076785    5.30508079640885
H         0.86224370635573    6.26845009758399    5.47913321940819
C         2.37330712154635    6.64128852009788    4.01596860406075
H         1.69827780674026    6.59254715881280    3.17229108146972
N         2.94426796865849   11.01257991911785   -0.07819504585250
O         3.30580412084199    8.29133134665118    1.54476444964077
P         4.29552178435422    7.12567241857183    2.08187303660338
Cl        6.47467969471728    9.25490639273653    3.15277709271351
Cl        5.99572716465699    8.75423613229490   -0.05365898262692
Ru        6.54203528692408    7.35091208610446    1.74772995309127

