91
CSD_code = PEDJUE | q = 0 | S = 0 | Stoichiometry = C44H37ClN3O2P2RhS | MND = 6
Rh       -4.08360234196818    2.03830013349482   -2.57337566050337
H        -4.84307108979638    3.16345505482402   -3.25471914525792
Cl       -8.22141370569659   -0.66038463709836   -5.64499527301364
S        -2.62978668704563    3.20182613364533   -1.27060404584833
P        -5.50596920419767    2.29088930732810   -0.79412265213644
P        -2.56597185782449    2.08767205279153   -4.25733492902314
O        -1.55279922746887    4.13316735708737   -1.60505417897364
O        -3.33257064252710    3.54289492487259   -0.01784465822974
N        -0.65137854384752    2.08973681703564    0.13687558759548
H        -0.09041236104396    1.44606241940778    0.67032090166623
H        -0.48862651881149    3.08511915624195    0.17913352672024
N        -2.06143550830109    0.51756765421612   -0.84297501231673
N        -3.11564514996278    0.43210670030183   -1.69203502359327
C        -5.15677701242514    0.49395317419184   -3.36675012899031
C        -6.25577238686868    0.48689132952969   -4.21672123878364
H        -6.67852985617919    1.40980609671153   -4.58219961373205
C        -6.84435990926430   -0.70586626394958   -4.60221374526982
C        -6.36501306497497   -1.93619482980630   -4.17432725078606
H        -6.84398192778362   -2.84849580955647   -4.49339001857002
C        -5.27319434430063   -1.95977627857387   -3.33435210736230
H        -4.88106153998706   -2.90359369793876   -2.98194850137379
C        -4.67376713221487   -0.76622586640565   -2.92693039997925
C        -3.55382415077288   -0.73364710194210   -2.02841947143564
H        -3.09348805369342   -1.63416895621173   -1.63218391919924
C        -1.66683211964733    1.72151642011399   -0.62088242409160
C        -6.05375340486828    3.94205968027133   -0.25337885775942
C        -6.99310305816241    4.01616777554297    0.77094603938500
H        -7.35253365239307    3.10686525408972    1.23502259273250
C        -7.46357933060702    5.24550401162699    1.19307803596308
H        -8.18722860545103    5.29844016332727    1.99382711761410
C        -7.00878894058188    6.40688425296307    0.58959773240349
H        -7.37550486905119    7.36717520458698    0.92202584910560
C        -6.08516189628977    6.33450695150605   -0.43961757746136
H        -5.73067452377191    7.23946901664622   -0.91132793943976
C        -5.61025564342830    5.10597869951019   -0.86304937359840
H        -4.87605778408674    5.04422793450724   -1.65340377028269
C        -5.08326579896080    1.39328888326953    0.73074391199263
C        -4.73582904859500    2.04547664205505    1.90731023266899
H        -4.73003526102042    3.12386863592214    1.93341779600158
C        -4.36358399879578    1.31224623290584    3.01966753914286
H        -4.09230701702798    1.82445509890121    3.93162826537316
C        -4.32904671560475   -0.07167763122845    2.96793930326815
H        -4.03125795837598   -0.63971295132958    3.83748221176300
C        -4.67159156712367   -0.72648628243533    1.79654765463223
H        -4.64357646319132   -1.80586267238175    1.74975605204879
C        -5.04683691325970    0.00131048459366    0.68232100631694
H        -5.31266147462303   -0.50886734914095   -0.23465250853678
C        -7.19482694913038    1.66327059172159   -1.16939310716176
C        -7.88126284447748    0.67745289566722   -0.47549251701154
H        -7.43731700468615    0.20026777971276    0.38608410342346
C        -9.15254215491836    0.29911097206885   -0.87650846295170
H        -9.67305172734879   -0.47635610293089   -0.33276225603341
C        -9.75643535954129    0.90741240399567   -1.96163884498280
H       -10.74402243801856    0.60230655375519   -2.27452100034520
C        -9.09089360603288    1.91617155816890   -2.63982379779947
H        -9.56328092811028    2.40575881663980   -3.47897057757319
C        -7.82213667324651    2.28860791250441   -2.24410937319371
H        -7.29220609830160    3.07547089585440   -2.76540167591550
C        -1.87987106414141    3.70031012949557   -4.76301487892486
C        -0.78804433791467    3.72307117765120   -5.62790141973156
H        -0.35236125120663    2.79324154686177   -5.96821765951878
C        -0.25911346363794    4.92968206155783   -6.04279957153368
H         0.59176455102040    4.94350682296980   -6.70855257121015
C        -0.81710778598657    6.12012273873703   -5.60289480096086
H        -0.39706102124234    7.06230396677501   -5.92335719016170
C        -1.91048079655993    6.10012772599080   -4.75457966756520
H        -2.34543734154903    7.02694550812592   -4.41130912669629
C        -2.44504459566046    4.89365601075697   -4.33776850407812
H        -3.29398748275227    4.87270207641808   -3.67001765430082
C        -1.07436042326776    1.15064019488864   -3.80817935221569
C        -1.08674521007595   -0.23962821441625   -3.90852303341003
H        -1.94610512217734   -0.73412055827366   -4.34434077911452
C        -0.01433686656913   -0.97717568128568   -3.44438124203512
H        -0.02544610759704   -2.05430474565787   -3.52804876180905
C         1.06874310617108   -0.33677786012264   -2.86344360744071
H         1.90440471383573   -0.91568315920818   -2.49825445259014
C         1.07331047983131    1.04254803396862   -2.73929050821387
H         1.91063605535480    1.54086613182216   -2.27262151106686
C         0.00331481130275    1.78852380471636   -3.20131608565809
H        -0.01157574955610    2.86256087065541   -3.07722104132254
C        -3.02583736255744    1.46204135727225   -5.90894202919623
C        -2.20184002702337    0.69373069377607   -6.72184535358859
H        -1.22196534103968    0.39038127275393   -6.38128975044963
C        -2.63873857619919    0.30768623738970   -7.97749694311641
H        -1.99696242997108   -0.29535166797014   -8.60358055863012
C        -3.88897993857433    0.68998395355688   -8.43282455464284
H        -4.22576957804150    0.37796762179363   -9.41030077215415
C        -4.70333155235825    1.47813563313967   -7.63538253213225
H        -5.67483818853868    1.78643400688799   -7.99192693930109
C        -4.27072944492891    1.86531645944875   -6.38215078574798
H        -4.88780861265064    2.48555224629632   -5.74732078275183

