32
CSD_code = PEDJAJ | q = 0 | S = 0 | Stoichiometry = C18H6N4O3W | MND = 9
W        13.69877099161410    6.09456269388393   10.07690815344098
C        15.31750265645449    6.52483138705159    8.99954129732240
O        16.21133828822478    6.75878368825805    8.32555672920970
C        13.09058658629322    7.53186118361701    8.85242727779610
O        12.66977490642838    8.37463290397474    8.20144512845761
C        13.90207895542781    4.48199095857459    8.93867413709048
O        13.96399204968123    3.50176109837748    8.34662269367758
C        11.96558843706709    5.47550373172462    9.09096004856770
C        11.02096189859972    5.15175777120430    8.39088576557542
C         9.95732214934267    4.79216394149387    7.55713244403370
C         8.73804365171440    4.41669783947936    8.09548873421277
C         8.57688276126906    4.39660705744955    9.49346313242980
N         8.47471377824580    4.38837266461461   10.63661393687566
C         7.63080955523043    4.05050724178057    7.31289714872163
N         6.72822598251389    3.75098750376353    6.66961303201774
C        10.16764104972050    4.82630062253295    6.13528247769882
C        11.32899422433890    5.19460458000010    5.53339884338584
N        13.52023790622500    5.95563631377249    6.62175651705644
C        12.51593375907294    5.60804239492674    6.18254639545668
C        11.42607707868725    5.18816654366859    4.11869759923012
N        11.49573737725810    5.18003608618849    2.97582176280801
C        12.51623309897596    5.73411726740351   12.05968770358045
C        13.68775804148916    4.93684577136766   12.09447090518433
C        14.80815438457434    5.80383783230450   12.06938657079819
C        14.32618561477014    7.14387195614833   12.01697691660036
C        12.90825312192437    7.09542208292808   12.01423734619074
H         9.33344498141710    4.53486729307387    5.50760551957523
H        11.50375776082695    5.37371240755593   12.19447655167852
H        13.71608411253351    3.86950806539674   12.27676295585650
H        15.83594842254003    5.51185833741362   12.24741204806102
H        14.92655335114480    8.03392952955395   12.16161242015378
H        12.24441306639303    7.94392125051220   12.12773780725389

