62
CSD_code = PEDMEQ | q = 0 | S = 0 | Stoichiometry = C33H25O2PW | MND = 9
W        15.36903672096589   12.30949699703353    5.47094859421544
C        16.20947519371713   12.38212451627402    7.62410479955585
C        17.03573235786838   13.19010060004163    6.81157685866613
C        17.67600583304174   12.35708271418471    5.85884536755935
C        17.24820608497196   11.02492109280153    6.09547343632169
C        16.34806897511674   11.04024555035559    7.18453891342250
P        13.18329550183522   11.40452995410469    5.94061217244091
C        12.85408236147326    9.68667537128355    5.42545029766878
C        13.93302871725054    8.87052064341808    5.10586319506077
C        13.72379594524005    7.55694859468293    4.72664676706453
C        12.43476286077829    7.05382602460880    4.65991068613040
C        11.35593907898064    7.86423653444636    4.97641749003790
C        11.56070388478039    9.17671698018871    5.36085146347077
C        12.88312211645231   11.32942345197615    7.73355968758428
C        12.91669333552168   10.13734699363382    8.44842124581864
C        12.80511815780753   10.15389758655008    9.82852902482183
C        12.66504620903232   11.35485767109356   10.50293866446725
C        12.64093283248865   12.54768827572765    9.79513184015503
C        12.75762642723778   12.53737350684740    8.41887968888270
C        11.71237051374717   12.27183499199336    5.30453543743635
C        10.56218297530022   12.48696227446078    6.05533381163847
C         9.48523105943996   13.15156574855127    5.49407018514222
C         9.54429484485317   13.59348789687789    4.18358113231194
C        10.68575784116152   13.37129068293543    3.42823327631110
C        11.76751931373218   12.71712642038777    3.98643073045167
C        15.07920112605863   13.84902803158418    4.23167279038437
O        15.16708600090241   14.58560827758592    3.31145280033003
C        15.02819141833478   11.51789569863528    3.71873683421567
O        14.87817445738470   11.09843447056176    2.65229315341116
C        14.15320316566010   14.09171568946639    5.47402749482754
C        13.48604058129181   15.00229383703218    5.96074116703903
C        12.61168319250288   15.93731143019958    6.54403501711771
C        11.43374605370572   16.30016260704913    5.88054080406103
C        10.56078212251968   17.19398177836750    6.46523599075385
C        10.83928800483634   17.73301532303809    7.71275462007464
C        12.00318114469255   17.37627023027190    8.37649229251065
C        12.88883344450252   16.48836573714681    7.80030866405041
H        14.93520391345983    9.28223656752519    5.14914393527342
H        14.56437144985957    6.92624681077716    4.47728768084931
H        12.26967242376026    6.03044821766717    4.35708181156293
H        10.35114950930785    7.47155849195330    4.92102201709738
H        10.72032120668468    9.81059097285265    5.60759014433159
H        13.02690111105957    9.19788595969599    7.92382893497628
H        12.82991317361061    9.22467743723681   10.37921935770649
H        12.57859905441784   11.36331851711807   11.57944078926631
H        12.53495171106884   13.48679053089301   10.31900239894255
H        12.75096110983229   13.46169183142498    7.85730795534614
H        10.50789311954453   12.14252173340963    7.07877597471730
H         8.59741680071451   13.32505584062675    6.08461303708927
H         8.70238536169944   14.11401374961328    3.75131578334972
H        10.73500063679945   13.71571217532685    2.40599865604506
H        12.66839039925996   12.55305579735976    3.40785292359169
H        15.69532689515259   12.69660736620155    8.52257340835657
H        17.23921025983233   14.24307866210498    6.96299141821562
H        18.46236228426114   12.65641371754012    5.17961773935827
H        17.65185967246409   10.14120911148145    5.61597094311341
H        15.94560641473753   10.16930077335801    7.68901213212735
H        11.22588865556738   15.87250696211571    4.91122238452711
H         9.65445253765594   17.47341724093623    5.94791368149363
H        10.15146743536543   18.43114489970297    8.16631602657570
H        12.22105909553869   17.79759961501384    9.34742202227439
H        13.79769591317091   16.20695283266648    8.31300244841060

