41
CSD_code = PEDMUG | q = 0 | S = 0 | Stoichiometry = C15H17NO6SiW | MND = 9
W         7.23795488443124    2.71633574889065    2.21495350904977
Si       10.77661376032279    3.34021126491360    2.33685319065061
O         8.73934678111833    0.08734571303800    1.56106025124304
O         4.63394218116180    1.18576087633686    1.49518495707721
O         6.95749955230403    1.30929837123295    4.96468695895899
O        11.11753604835924    2.74421330871633    0.84173881530584
O        11.68243613177797    4.61452336352540    2.85493262427326
O        10.13323318428946    2.35360134905089    3.48873275700873
N        12.65158513710425    2.16370124098419    2.87289327987168
C         8.12744326672813    1.03517978781057    1.79258157195029
C         5.60435516597811    1.74116605584524    1.77079906130680
C         7.02871083470166    1.82876888010271    3.94029409741638
C         9.12138521461499    4.16752590209416    1.96295030557680
C         8.35526918588779    4.66563401482847    3.01671475455132
C         7.00576799441220    5.04562970593477    2.83500723469435
C         6.41218577098143    4.89608704653096    1.58227737544574
C         7.17388916353596    4.40681304668171    0.49639678924855
C         8.50388664892664    4.03783067290455    0.69705585819683
C        12.03017209442890    1.71769035625361    0.59723583940190
C        13.20464646308599    1.83855548715898    1.57729503889780
C        13.05227592033365    4.52472536566710    3.09817444429401
C        13.39628577512311    3.13255349286618    3.64392691776357
C        10.85847936733168    1.51435345509377    4.33804289933360
C        12.12835634940069    1.03918736557959    3.61971438323233
H         8.82214955112237    4.81017944937696    3.98395127609194
H         6.45145252233065    5.49403099088618    3.65350297454345
H         5.38973860183409    5.22220028975556    1.41822974981443
H         6.73294932334758    4.36660418522044   -0.49422818411838
H         9.10604169259394    3.69652543157453   -0.13677952121019
H        12.37671250413072    1.80428524174743   -0.43607215179195
H        11.51922609699491    0.75561997326664    0.71956640720614
H        13.79850751980728    0.91731577409660    1.58962676067267
H        13.84120352209731    2.66483415033611    1.25699132385847
H        13.32553273075419    5.30036568127516    3.81850236155901
H        13.59147832286829    4.71219098287256    2.16126760507067
H        14.47936775009735    2.96166235623875    3.61156749800450
H        13.06023901482320    3.07544337824781    4.67991090372582
H        10.22027017202095    0.66858235574865    4.60352741377739
H        11.11148728065194    2.06564695038621    5.25268651047290
H        12.85457248068674    0.63169967734676    4.33289826401886
H        11.84791403750372    0.25962125958300    2.91104789355643

