48
CSD_code = PEDNES | q = 0 | S = 0 | Stoichiometry = C21H19N3OPtS3 | MND = 4
Pt       11.80545405209187   11.08722181724931   12.03144333546631
S        12.36743061443074   13.20219427882086   12.83764601468153
S        11.40656780678608    8.86783116747014   11.45553184617106
S        10.93519649779659   11.84400367697437   10.13058640545923
N        12.52729806529613   10.39084477443651   13.72690247579837
C        12.98141496587050   11.23853654740041   14.66883974546415
C        13.47573232117160   10.76964783150003   15.88379171724780
H        13.82296147890218   11.49790718769216   16.59793245540195
C        13.50090088037708    9.40944541884781   16.13069339089143
H        13.88051772067339    9.02756544128360   17.06566215866509
C        13.02827001556305    8.54818319322582   15.15785953127869
H        13.01604129730007    7.47806546488929   15.28302055546806
C        12.54237176205081    9.06482830935331   13.95886372291395
C        12.95817059740185   12.68480315082994   14.40772302211136
N        13.32710066903448   13.44725797998127   15.35864103232221
C        13.45037149335059   14.81427159377222   15.32939277983564
C        13.04263198914011   15.52028726345011   16.46549929100035
H        12.58204371528978   14.97608653758041   17.27594761454688
C        13.19893188456822   16.88916886887951   16.52695655814031
H        12.86454748115648   17.42764884652892   17.40188639639154
C        13.79130416619281   17.57372497276676   15.47667760814704
H        13.91969784838337   18.64455966675254   15.53096061390382
C        14.22475693016699   16.87667507257319   14.36076481584068
H        14.69804697221456   17.40438383375202   13.54517328070515
C        14.05193312534404   15.50953671963127   14.27704393995920
H        14.40502042028801   14.96496262110992   13.41477731630402
C        12.03248712630898    8.14776117583371   12.92945808180771
N        12.12572956556973    6.90094243524919   13.17372763202996
C        11.64778479866444    5.86668187747071   12.40731304898089
C        12.44654930545563    4.72418122603813   12.29762639652601
H        13.42796585715194    4.73285717151098   12.74716025476080
C        11.99478607984887    3.62402396564861   11.59908314813836
H        12.62661739854509    2.75252105489533   11.50547898394799
C        10.73178196439545    3.62864123040836   11.02697469028717
H        10.37743103513012    2.76275597726127   10.48762291034702
C         9.92325677848811    4.74605232280653   11.15758231806485
H         8.93339361747261    4.74999164453247   10.72456363989721
C        10.37347945928761    5.86245254389537   11.83331793504421
H         9.73554824399487    6.72525783622696   11.94796400994565
O         9.49204903510783   11.78217301041229   10.06819892110080
C        11.42912848972471   13.52774536684681    9.64925789486415
H        10.98110953730797   13.75739345370605    8.68932864435634
H        12.51147720497773   13.56879652655764    9.60623865611138
H        11.06235938588138   14.21341316531638   10.40595016350565
C        11.59527708440908   10.96021458402388    8.68344350446938
H        11.31174901226101    9.91634279041977    8.77351806995647
H        12.67546621601360   11.05719831617837    8.69317234613982
H        11.16715803339001   11.38596008845107    7.78320112546318

