54
CSD_code = PEDPOG | q = 0 | S = 0 | Stoichiometry = C24H24Br2ClN2Rh | MND = 8
Rh        3.47434020746961    7.31508256162564    5.62301461774006
Cl        2.17577166756100    9.04972012084634    4.81788563287873
Br        6.95648402925973   12.11168847343741    8.71481432370665
Br        1.32150159524713    5.41991744650985   -1.87756386025782
N         4.88913875907921    7.90608996340762    4.29835155437158
N         4.98341411651402    7.37761614918172    3.07924016858843
C         4.43431346935414    8.70874752436491    6.68336597753408
C         4.12371730239759    9.16645255039162    7.95910190600466
H         3.28032110575716    8.76014457937646    8.49973533952887
C         4.87406325474144   10.16368996348221    8.55812672004204
H         4.63258387474982   10.50542119482330    9.55354298538728
C         5.93515210754444   10.73871968871686    7.86893081407138
C         6.25503272480165   10.34975578414711    6.58868822449013
H         7.05883436661311   10.82211796489355    6.04450038019660
C         5.50160040040798    9.33211407301154    5.99692963168117
C         5.68450869429504    8.86382260702492    4.66326840749847
H         6.37926612267172    9.31181878983901    3.96144520005774
C         3.94984033153175    7.21544218355791    2.34780970957848
H         2.96677488079003    7.57686297076026    2.66758302598373
C         4.03142823658366    6.55145615064986    1.06610022799708
C         2.86065162006229    6.35510980673952    0.33068788742174
H         1.91442682143596    6.71040196935515    0.71172486653785
C         2.92616406909258    5.70300475980152   -0.88527561952101
C         4.13034436339121    5.24536729803774   -1.39659463488896
H         4.15853892397973    4.74083343589005   -2.35011371447052
C         5.29198269372571    5.44737873968294   -0.66637732675693
H         6.23336134457337    5.09600523122952   -1.06132872383394
C         5.24823742841056    6.09120798575077    0.55431059178402
H         6.14597436662046    6.25273071832184    1.12997676916202
C         3.06750375033740    5.12113046061977    5.00251458923137
C         3.92115470346422    5.24639143620884    6.17238997473903
C         3.14666596315251    5.81848355748345    7.22977394983793
C         1.90463279094075    6.23143079982001    6.66596224444702
C         1.84415110423251    5.73008211229801    5.29666105703679
C         3.42855721988384    4.32857536826736    3.78481741275728
H         3.34314211333901    3.26399043336837    4.01155472148081
H         4.45296933198091    4.52226678153981    3.47108455817653
H         2.76784066722884    4.55343522648831    2.95092327768518
C         5.23614021593286    4.55241855011847    6.34323787422458
H         5.82351670618315    5.02023000599772    7.13005745325381
H         5.81383149178101    4.56935715137029    5.42138396024404
H         5.06583317292179    3.50914032832673    6.61744428997250
C         3.54189536634270    5.83178861011652    8.67375594698582
H         2.84391042771834    6.41507562138572    9.26785831375467
H         4.54212317059958    6.23720341347984    8.81544612869175
H         3.53485180343202    4.80743268680840    9.05037471893991
C         0.70974123819209    6.75981535811100    7.39702047826955
H         0.02037157973597    5.94114785763066    7.61314527581127
H         0.18612645395326    7.49603364125729    6.79030446261475
H         0.99317990007853    7.22874750488867    8.33614249467179
C         0.61515615305754    5.79815753705639    4.44783476773737
H         0.78873322664016    5.36271610948342    3.46669575448894
H         0.29627616383244    6.83271207360618    4.31993370737807
H        -0.19607359362229    5.25301668940544    4.93180150507829

