39
CSD_code = PEDPIY | q = 0 | S = 0 | Stoichiometry = C12H18N6OSZn | MND = 5
Zn        2.11356433566098    4.00953557063855    4.65177646995518
S         1.37975672650728    2.54057413317975    2.92259196043949
C         1.91447743631864    3.62565779540359    1.66779419981593
N         2.44523624935548    4.81012793587116    1.80358462867354
N         2.60568114772973    5.22730491559490    3.06712384726342
C         3.08866584664281    6.38554021207586    3.38862866359488
C         3.17065813644817    6.65319125256160    4.80685079780993
N         2.72318144108081    5.69972493264986    5.56658156841988
N         2.70603393081802    5.71940905475545    6.88954547315056
C         2.15535829726335    4.61291981231572    7.41731668985073
C         2.08337834496815    4.51650392275562    8.82660136500777
C         1.52226448630055    3.41001038029720    9.40189840138020
C         1.03083828737178    2.38696176820183    8.58223702654778
C         1.13433434520501    2.53812255237198    7.21870371618863
N         1.67473524841684    3.60722683390141    6.64319204498171
N         1.77212968512273    3.12799281779962    0.42473925739027
C         2.01577723777948    3.88508698583451   -0.77422578552753
C         3.53712719834477    7.40023526653204    2.38451460412140
C         3.72299653457098    7.94148041365228    5.33434507585127
O         4.19150600271527    3.11984384240514    4.87561528146576
C         4.90602323820126    2.37458422794680    3.90380454034306
H         1.25525389886260    2.26589663209170    0.35194331470967
H         4.81707473444239    3.56914243310588    5.45453788102242
H         2.47691411416223    5.33498405176151    9.40705929470942
H         1.45625687457009    3.32247587997355   10.47687709641624
H         0.58028022255962    1.50300458941441    9.00275266217701
H         0.77092269558138    1.77647668152048    6.54111120743996
H         2.41894504567067    3.22695495651264   -1.54338560738538
H         2.73676116971272    4.66413416321275   -0.54129987396752
H         1.10024580916704    4.35222954987420   -1.14935775034083
H         4.59970630695458    7.60922631810005    2.50015586374314
H         2.99267355012287    8.33312791733390    2.51875623885374
H         3.35230255083934    7.01442526343541    1.38560180522012
H         3.71914138993226    7.89531047021446    6.42019857149609
H         4.74045888464159    8.10409824030787    4.98093896371153
H         3.11247075116442    8.78345140398363    5.01071557204020
H         5.54682980450147    1.62995116439593    4.38268366655668
H         5.50962019315654    3.02927865344799    3.26936989939777
H         4.16241784713709    1.86929700456551    3.29082136747525

