54
CSD_code = PEDQEX | q = 0 | S = 0 | Stoichiometry = C24H24Cl3IrN2 | MND = 8
Ir        2.00011702913371    2.23897441167890    2.17095461503665
Cl        3.98768048215227    3.13469593701477    1.29523167247348
Cl        5.10544229532465   -1.04249974467105    5.72686355081036
Cl       -1.72936740667112    4.56722132749597   -5.74152221763966
N         1.92825082169359    1.08142009587592    0.49403897241652
N         1.28958761619226    1.46069280810730   -0.61427146804130
C         3.05355461749832    0.60924113974281    2.73464973581906
C         3.67973973342711    0.39377817050059    3.95513613088830
H         3.65230676047360    1.14257156136197    4.73078072794859
C         4.36314844432845   -0.78847296215152    4.18818807062007
C         4.47325168009221   -1.78058051796660    3.21735911142091
H         5.02223855688722   -2.68370744258142    3.43158570218722
C         3.88828931222443   -1.57868854533559    1.98875494606378
H         3.98125861704879   -2.32117628538089    1.21042451506524
C         3.17720162931870   -0.39983144411537    1.74295976291286
C         2.54895245241206   -0.06605392535622    0.51147890773410
H         2.61883166812596   -0.66981385243615   -0.38524733949110
C         1.39375298307338    2.65223143344308   -1.06310724012665
H         2.07466014451364    3.37174444339648   -0.60242795984869
C         0.63554870188745    3.09735688427271   -2.20719206690750
C        -0.28440197581008    2.25871867117139   -2.84454169098785
H        -0.41230755100051    1.25460622846227   -2.47242878121631
C        -1.01042469656548    2.70615136061975   -3.92736522397233
H        -1.72016764119791    2.06055890139927   -4.42036241149769
C        -0.82226655665582    4.00405062953060   -4.38673706495071
C         0.08700216941038    4.85276803888473   -3.77042710861680
H         0.22241714231258    5.85665194711261   -4.14089567514431
C         0.81060658464801    4.39818095284829   -2.68665194988386
H         1.52337884334419    5.05103880592988   -2.20467793580443
C         0.89602236284600    2.68290178409989    4.07272738933283
C         1.60707562974523    3.83948660251439    3.64877241104495
C         0.98465461735551    4.32555219299149    2.42556056087807
C        -0.02371822882219    3.43280006501203    2.06446472405912
C        -0.03331293387639    2.35324544858083    3.03294911666774
C         0.96975050364204    2.00623941261268    5.40481227499539
H         1.84919704437608    2.32283629411789    5.95857286983705
H         0.99739715225713    0.92323693278349    5.30149236153828
H         0.08726124906241    2.26925594039029    5.99055256999628
C         2.58966516143408    4.64008252425876    4.44289303033089
H         2.08770680928012    5.48987278807598    4.90966123707383
H         3.37778498710648    5.02288504200802    3.79750051750911
H         3.04959617899846    4.03981922189238    5.22378824434132
C         1.35599311784754    5.61457844616841    1.76963816110275
H         0.77750410006401    5.77669525842028    0.86288074741596
H         2.41550437484735    5.61695684779438    1.51257466978152
H         1.17393545077780    6.44683528809843    2.45072685062692
C        -1.01568240402994    3.57082989812581    0.95509225348109
H        -1.96620088928663    3.92861507896135    1.35586871044966
H        -1.19841926076740    2.61528504862969    0.46617906849193
H        -0.67682008629352    4.27749845607298    0.20064764777028
C        -1.09992428742208    1.30930667428697    3.13066480142073
H        -0.75370570103586    0.45439274261944    3.70667065157119
H        -1.40204855651868    0.96268858516970    2.14484717421504
H        -1.97969884920694    1.72317439746238    3.62771166879994

