65
CSD_code = PEDXIF | q = 0 | S = 0 | Stoichiometry = C24H34Cl2IrP3S | MND = 6
Ir        3.28511150418816    4.46967868426245    3.97323686819418
P         4.42721811265041    5.04290453362693    1.98147955308473
P         1.81732534191014    6.29304170617124    4.06742268823901
P         4.40026812227351    2.45266285050407    4.35978066165686
Cl        4.95090508605047    5.70561690130646    5.09548356509375
Cl        1.60854467190000    3.30941578955627    2.76642164799882
S         2.26824320108831    3.96690666673117    6.13802212795894
C         4.88830129794058    6.81215328618935    1.85521738786952
C         3.53407591779937    4.80180743048476    0.40720580351161
C         0.10622805668178    5.89665476003319    4.58473038238531
C         2.26400050606262    7.56150557467388    5.29459654809411
C         5.62663511646289    2.50690761058151    5.70271987026208
C         3.32414057730711    1.07636163431704    4.90898747390559
C         6.07012208232222    4.31190181518429    1.68112445493340
C         7.04602352194173    4.51325940432353    2.65411760089213
C         8.33192484054723    4.04605326897229    2.46059445404444
C         8.65795524365316    3.37315891084621    1.29455631196820
C         7.68789041746865    3.15881566224953    0.33127486430815
C         6.39768308352721    3.62207198309815    0.52076300989944
C         1.44253815213136    7.23604487412110    2.55318486106118
C         0.71684682104358    6.58996771598267    1.55478995065714
C         0.39406216110797    7.25191750965085    0.38453907295889
C         0.79891601235989    8.56370945596700    0.19494592371572
C         1.53056666103329    9.20767981897261    1.17833720535407
C         1.85519761118157    8.54836796683791    2.35203781259380
C         5.22616122171870    1.60049733029890    2.97860331095599
C         6.54930382942238    1.18310931803834    3.00945336445240
C         7.07262809895273    0.46688965234641    1.94701280161855
C         6.28430337571271    0.16437252024324    0.85053150457411
C         4.96708338199344    0.59197101711633    0.80878276394458
C         4.44128918787628    1.30831570912950    1.86641184831511
H         1.25654394007381    3.25435721387473    5.66255913674908
H         5.52654664673987    6.96021683062151    0.98415785040153
H         3.98723895616362    7.41601403645046    1.76134444116194
H         5.42337371894225    7.09905570457162    2.75838570099344
H         4.12507965596854    5.17477464479915   -0.42855147751678
H         3.29969575753611    3.74794773240303    0.27348678793387
H         2.59796891604579    5.35582359338443    0.46815373638217
H        -0.52462268837524    6.77288583511819    4.43343818191788
H        -0.27435887580678    5.06184545246642    3.99922938272098
H         0.11669012371962    5.61813695465340    5.63736210725202
H         1.50359645311178    8.34137566730275    5.33020509878864
H         2.33007970345244    7.05877352812742    6.25991998414951
H         3.24228545036165    7.97996379526726    5.06677775782071
H         5.98489345465774    1.50376236508194    5.93251248626391
H         6.45095815454543    3.16220662253487    5.42913527120571
H         5.12635273533266    2.93038558244200    6.57427431482366
H         3.90640835363432    0.15471170736732    4.92855313070539
H         2.94093272286736    1.30085419086008    5.90323366455371
H         2.49064637046115    0.96965331849329    4.21653544021377
H         6.78439938223204    5.03834712076230    3.56207136204489
H         9.08335188867646    4.21082206974372    3.21920457538022
H         9.66416787180149    3.01284478657685    1.13852410711998
H         7.93509400527120    2.62791615473540   -0.57658580600474
H         5.65332746623313    3.43489124835827   -0.23743411680040
H         0.41281327536684    5.56301516631033    1.70185703736862
H        -0.17386298920189    6.74434392180288   -0.38159134577541
H         0.54551648720389    9.08252755460007   -0.71767495979644
H         1.85045913523497   10.22939688086254    1.03281601664066
H         2.42795720194477    9.06062230561202    3.11101666961609
H         7.17704520192812    1.41572545329329    3.85590930153324
H         8.10212653757710    0.14075181624119    1.97876540342697
H         6.69693213027548   -0.40119443919391    0.02792548051798
H         4.34970186929457    0.36164961336422   -0.04766420445443
H         3.41366777045022    1.64497420930618    1.84388178816490

