117
CSD_code = PEDYOM | q = 0 | S = 0 | Stoichiometry = C60H51N2P3Ru | MND = 5
Ru       -0.53807997075369    3.12540181215957    3.77965012759591
P        -0.95603075956048    5.38636572023846    3.95536184235989
P        -2.35269621181338    2.32084412727966    2.65283982634257
P        -1.05067928104426    2.24946621566685    5.85159923638202
N         1.37072522790062    3.24407246677481    4.46300398327260
N         0.50700606892651    2.72242675600223    2.13788143406808
C         2.32801348254897    3.11843535308803    3.53666583365278
C         1.84725347914960    2.80756121017577    2.22827461814641
C         2.75866076357839    2.64055060859677    1.17738967131940
C         4.10777803901016    2.77524364352840    1.41521780566969
C         4.57884154264493    3.08507361879186    2.69372341400176
C         3.70914100693817    3.25901619662612    3.74451540822335
C        -1.66997106486337    6.29651271798474    2.51573769917582
C        -0.94597485326243    7.03930150992972    1.58959970480434
C        -1.58920463458078    7.63876685428633    0.51904475513240
C        -2.95731408993211    7.50998067516385    0.35734878750828
C        -3.69024366391661    6.79041739505546    1.28781155461320
C        -3.05208308146280    6.19488659536038    2.35713597678699
C        -1.90032965682324    6.33749829411684    5.21990452212006
C        -2.07058325387332    7.71438720689797    5.09326280621488
C        -2.78870185678407    8.41317988363232    6.04433540900036
C        -3.34855070877527    7.75022173862737    7.12667560830278
C        -3.17927778218186    6.38330531740452    7.26024607600355
C        -2.45547818497916    5.68584894724780    6.30963596552538
C         0.67683547386843    6.19796820788013    4.09539892561855
C         1.59594108423156    5.93925995405146    3.07855563662940
C         2.88034668305310    6.44304127488220    3.14413013416374
C         3.26903519109565    7.20225384641691    4.23633775926556
C         2.36686662930617    7.45418060599853    5.25579449781009
C         1.07686040983492    6.95618554595227    5.19032570210910
C        -4.08615077941558    2.87572001344879    2.87771431840778
C        -4.38277164646107    3.61030516241565    4.01907321006234
C        -5.67273921303274    4.04126868222978    4.26833372112242
C        -6.67967257765270    3.74929757063840    3.36330275175325
C        -6.38939801202425    3.03131808066733    2.21366562826389
C        -5.10021203434343    2.59329688125450    1.96807280727494
C        -2.28974613488339    2.41356733999157    0.81818957592922
C        -2.60499710663353    1.35682713468437   -0.03022764623846
C        -2.55863760828517    1.53183847654643   -1.40287375543811
C        -2.20177540777503    2.75606150279041   -1.94306191594375
C        -1.88000754263882    3.81075787048114   -1.10406866245467
C        -1.92073884795236    3.63666091366815    0.26608633740095
C        -2.53892652895736    0.50018719471658    2.82016387493050
C        -3.72598311359870   -0.16813173643090    3.09953956064431
C        -3.73138689965879   -1.54655775569727    3.23132755554733
C        -2.56365650201609   -2.27095940684176    3.06750511435972
C        -1.37983451259759   -1.61308508582996    2.77410222611865
C        -1.36685383193093   -0.23684281265477    2.66570125706527
C         0.05153639964190    2.75280979054677    7.22968154834639
C         0.48609106036455    1.85749311653645    8.20204853878040
C         1.30370445045304    2.29304035176217    9.22962797326697
C         1.69400205321419    3.62066325517503    9.30058875852986
C         1.26174679494399    4.51845855238291    8.33819736455809
C         0.44499819210740    4.08509259872399    7.31040031945204
C        -2.63442937726843    2.16839770227017    6.78079319846156
C        -2.81823932144109    2.71233145048455    8.04783461245917
C        -4.06223213373351    2.65801752354799    8.65264566336783
C        -5.13330067758658    2.06639931925630    8.00465449587568
C        -4.95792972723299    1.52237676253338    6.74226944209566
C        -3.71836866394731    1.57864363566240    6.13621340609814
C        -0.64090701364689    0.45306002247055    5.80811021392382
C         0.56739383359469    0.11994851690695    5.19903174597142
C         0.99108168134086   -1.19275879149727    5.13624988075792
C         0.19912805208652   -2.20087009502506    5.66214319174528
C        -1.00678380890696   -1.88143213404913    6.26036822924540
C        -1.42323402431973   -0.56383141688644    6.34469160310087
H         1.73627382518193    3.51315340287789    5.37607320792246
H         0.19080985849033    2.53914764797137    1.18244158232066
H         2.38789515470910    2.40119954991766    0.18788215028768
H         4.81172735292459    2.64302039109411    0.60602360036826
H         5.64247322714500    3.18921858694684    2.85563344907614
H         4.07052505183857    3.49834632643092    4.73676956019700
H         0.12059123543515    7.16589767983343    1.69960881626291
H        -1.01230632020972    8.21295478679331   -0.19224266409213
H        -3.45107547330725    7.97359637999699   -0.48412105656880
H        -4.76086358322305    6.69184162211951    1.18053193454354
H        -3.62483215617320    5.63695197617239    3.08354039837735
H        -1.63473666831122    8.23393913096885    4.25088632227775
H        -2.91523304958912    9.48153363639501    5.94274372112506
H        -3.91361656057322    8.30214613410105    7.86367234625064
H        -3.60967686617199    5.85668137055877    8.10000667122051
H        -2.30864424401406    4.61721949729495    6.40906604049050
H         1.29641794064300    5.32109366759403    2.24117551302905
H         3.58267127553864    6.22900265924996    2.35166493024109
H         4.27570731634125    7.58940665646450    4.29584400843854
H         2.66960963555477    8.04106214494010    6.11171541510710
H         0.38386423081434    7.16075514549847    5.99512345122212
H        -3.57507443518450    3.84768468582587    4.70162867165691
H        -5.88738408415033    4.60813354719683    5.16297927152040
H        -7.68950755532428    4.08573972919249    3.54820153957824
H        -7.17362287567468    2.81138731375349    1.50317521682126
H        -4.88199968056093    2.03476153835662    1.06858535993419
H        -2.88026078302512    0.39329806781884    0.37607330977972
H        -2.80325941331045    0.70475915808914   -2.05423429980880
H        -2.16866273711929    2.88473944415822   -3.01511401844778
H        -1.59342620969482    4.76796154490265   -1.51530001657703
H        -1.65071212614467    4.44585049012373    0.93046992908594
H        -4.65011656528436    0.38311344648817    3.20910706563857
H        -4.65689648572872   -2.05678921676683    3.45773302351651
H        -2.57524965419208   -3.34643722973939    3.16675838502145
H        -0.46723320593538   -2.17459734598105    2.63774874849258
H        -0.44023040640640    0.28836811212147    2.45735931309686
H         0.18524500810853    0.82028082124533    8.15467800350430
H         1.63946480635860    1.59129414003028    9.97963060901623
H         2.33596286503730    3.95327951320661   10.10319316351301
H         1.56504531319048    5.55459202105335    8.38413504688480
H         0.11099417087083    4.77713004483769    6.54621022827691
H        -1.99231783419303    3.17981035857021    8.56550995746279
H        -4.19440446922241    3.08032293501021    9.63881195402091
H        -6.10161371903177    2.02905678013690    8.48193584703539
H        -5.78834686647647    1.05881815576589    6.22926065773617
H        -3.56692341469611    1.15801494547241    5.15148758032928
H         1.17954785908562    0.90691483560395    4.77125063207391
H         1.93700294605839   -1.43120357102582    4.67075499207749
H         0.52082254214861   -3.23076032529197    5.60620692593587
H        -1.62904878702152   -2.66236571084106    6.67388335826050
H        -2.35795088271355   -0.33705110927881    6.83623928002212

