67
CSD_code = PEDYUU | q = 0 | S = 0 | Stoichiometry = C36H24N2O4Zn | MND = 4
C         6.14028856006396    8.70195310749705    2.53248511187007
C         6.59006412627349    9.77304145742376    1.71052056013638
H         6.48693874109608    9.64201598381999    0.64368383434815
C         7.12210368054182   10.91643031241662    2.23397995894006
H         7.44499232465726   11.71134086824913    1.57631816939978
C         7.25963241207005   11.07272602212998    3.62019720060181
H         7.68191507610532   11.98021028987292    4.02323925677616
C         6.85198315741309   10.06575768803474    4.44746693809542
H         6.94407290795721   10.17571501422798    5.51966970634628
C         6.27549602015385    8.87642876656119    3.94957530293109
C         5.80076283701894    7.94431832820748    4.89860381186178
H         6.00168641542632    8.18578884811653    5.94850001259260
C         6.35857368167078    3.92153711000183    1.97220533613943
C         7.61869569279596    3.27902443202044    1.81778318372727
H         8.43875080529749    3.66802618573318    2.40216694782194
C         7.79240788071344    2.22550222585093    0.96728901707910
H         8.76463000656443    1.76272562326955    0.87285899679997
C         6.72055373783128    1.73198021679505    0.20777652414845
H         6.87288168119781    0.89955076217225   -0.46199301365820
C         5.49223293566149    2.31515264716356    0.32773873093455
H         4.65677318410484    1.94364084695561   -0.25074334999722
C         5.26615893514788    3.40577934189793    1.19921331248021
C         3.95840661103216    3.92526614611815    1.27527002209486
H         3.21473631322020    3.41523799642986    0.65538579239913
C         4.57184630921250    6.14400353658097    5.71731454479727
C         5.38876015572538    5.48536616736378    6.62564080132377
H         6.45943886562448    5.58033590949431    6.52550798808056
C         4.83279950257882    4.68027792959308    7.60472251086093
H         5.47688627213033    4.16273042915295    8.29916758805879
C         3.45943989179950    4.52948570695863    7.68761194699411
H         3.02825044691282    3.89209771290145    8.44421494359111
C         2.62989571828243    5.20322154061114    6.80628530477106
H         1.55654796062881    5.10788963517731    6.86016840619305
C         3.18050678873442    6.01706648755642    5.83188348106147
C         2.64556476951098    8.00253910436119    4.72164135020161
C         2.78862854488382    8.90159198890836    5.74333267116206
H         2.66998860592116    8.57025037015235    6.76568859655702
C         3.15390749660764   10.23876788944933    5.48312600966871
C         3.35938871330340   11.16895094994334    6.52160626759154
H         3.20152274572742   10.85109405398458    7.54230770567445
C         3.75789350445926   12.44754004562827    6.24415157835126
H         3.91863943269805   13.15278455720560    7.04619865977623
C         3.96676426547595   12.85326532561369    4.91786994539861
H         4.28710220436175   13.86480041751764    4.71770672361265
C         3.76799017155724   11.97597010794017    3.88787469138171
H         3.93077934874346   12.27953491420251    2.86460760213390
C         3.35729837302224   10.65267273581984    4.14096301209245
C         3.17651311763883    9.71781255589715    3.10163907396541
H         3.36507221116583   10.00529746514514    2.07904914117535
C         2.83545222034554    8.42411180470428    3.37942315674301
C         1.84550315813828    6.55341411799415    2.36582167148697
C         0.52044860889588    6.90996509687671    2.55470535429566
H         0.27631990815905    7.94035391914099    2.76947553545681
C        -0.46917468108649    5.94645852189416    2.47493133575806
H        -1.50088372650005    6.22484827016432    2.62448174984718
C        -0.13049129746509    4.62927892912338    2.21604162963512
H        -0.89923112231643    3.87270471784263    2.17187413467908
C         1.19106416649854    4.26903266438554    2.03065648849364
H         1.44440666866895    3.23030644641350    1.88147480180266
C         2.20388057641407    5.22620960368731    2.09000488315624
N         5.07434273925317    6.90126609622789    4.65044787760583
N         3.55968725129625    4.93322140403930    1.99746351701317
O         5.64972371925944    7.66188421219433    1.97067887843446
O         6.25128557632913    4.89835493177405    2.79020047058988
O         2.35310858936374    6.67177544279664    4.94059571489296
O         2.85583947266304    7.48410547648305    2.37854549487800
Zn        4.88615503135982    6.19171058611897    2.79750539687841

