41
CSD_code = PEDYAY | q = 1 | S = 0 | Stoichiometry = C12H15CdClN9O3(1+) | MND = 4
Cd        0.94669946031445    2.38870086673433    4.26119608286680
Cl       -0.83756632949977    3.30919711836193    5.40884300147930
O         1.50626615949142    4.63255220319198    3.33330648163678
O        -0.02993400106897    1.88221297900651    2.09932511721730
O         2.97278854993582    0.52205117661083    5.50427223612047
N         3.34610874695895    3.02635675708488    7.12769010143443
N         4.36510056506604    1.51307664341101    3.00800197062730
N        -1.54608356007271    0.32036653221633    5.30341510009224
N         2.14740130410164    6.15312933847055    4.89141417619363
C         1.99457575528221    4.85321459630955    4.43267050298168
N         2.41459179598850    3.84767005578402    5.22999358485016
C         2.93365438910048    4.07965057012664    6.42888718951646
C         3.05824345867712    5.41668566871422    6.92490577897457
C         2.64005846877604    6.42203957158200    6.12001176948334
N         1.39045967222151    1.96911539788327    0.32606006481766
C         1.11780520134993    1.85899233619268    1.68074265660944
N         2.16119681053579    1.70461612502422    2.52104618784974
C         3.41504218957288    1.68682797087918    2.09490388102263
C         3.70652124411508    1.84127396352567    0.70107876450972
C         2.65736638597103    1.98651309446319   -0.14306697295770
N         1.99772795764067   -1.47642004079138    5.93368600220056
C         1.93613768823773   -0.13714304306328    5.57224168642094
N         0.73144247723356    0.39582119010998    5.32766612119517
C        -0.39837541990581   -0.30567856701078    5.47379537131276
C        -0.33401983784428   -1.69956925607662    5.81492267333833
C         0.88433337516442   -2.24097478259083    6.03482179413171
H         3.23204366857914    2.10755772576601    6.71105591547273
H         3.70479544807497    3.12532175129393    8.06117449008493
H         5.33701164264660    1.47425962139286    2.75564454782209
H         4.07092766383803    1.34469593372862    3.96417903667527
H        -1.53697126901651    1.34855563515219    5.20648002571557
H        -2.42045072707305   -0.16304737817908    5.42696739845627
H         1.79656089479295    6.88920250837473    4.29186763604557
H         3.45637819082076    5.60583063694329    7.90574702758712
H         2.68575862408485    7.46012332154119    6.41312845358670
H         0.59804222392892    2.10648644540567   -0.28825280063333
H         4.72201870733300    1.84743625627537    0.34699459715358
H         2.78257732060294    2.11188140640705   -1.20817467008613
H         2.91372447122696   -1.86380155544192    6.11826386593256
H        -1.23413036970805   -2.28213737625609    5.89988858031229
H         1.02497100252212   -3.27674339852930    6.30490457194856

