70
CSD_code = PEDZAZ | q = 1 | S = 0 | Stoichiometry = C28H35ClPRuS4(1+) | MND = 6
Ru        0.64923281615729    2.88750360893858    2.50570377762853
Cl        0.98600013640438    1.66728504596081    0.49205482266552
S         0.49733487266004    4.17567257621901    4.45314127397895
S         2.89882767371090    3.66144658379894    2.43338947358465
S        -0.18192488784187    4.72120440769358    1.17462339449668
S        -1.64623824395252    2.24756704974333    2.52339531943866
P         1.38043375074428    0.98256791362192    3.63665796777506
C         1.55437104385237    5.59365788451431    3.96531488731895
C         2.92976081158264    5.07319219192126    3.60814238660643
C         3.28431241450153    4.43215007523937    0.81963874724023
C         2.31456949895504    5.45729204587454    0.25023556471384
C         0.98892702513491    4.86804821612883   -0.21840759782496
C        -1.67215347720297    4.03800697419804    0.34323428356539
C        -2.03621757734796    2.62848199864329    0.77947336491755
C        -2.74557579809074    3.46996185575660    3.35331913097593
C        -2.23367451002827    3.97456845170508    4.69342275650921
C        -1.12198306496868    5.01116016950312    4.56918900688573
C         2.75417696962292   -0.03458137735538    3.00490989150406
C         3.58713021836840    0.37836016432673    1.97342664623563
C         4.62251924702599   -0.43505351490137    1.54685565681826
C         4.83639753955096   -1.66187496532932    2.15033399045119
C         4.01416157289205   -2.07476667981214    3.18733297082538
C         2.97714179868820   -1.26878230231858    3.61469625896375
C         0.10497889100736   -0.29141770655837    3.87140726770453
C        -0.58531959752243   -0.68612282978673    2.72662127538472
C        -1.53046391610255   -1.69135977403506    2.79376645397289
C        -1.79300535991610   -2.31286445247026    4.00454862922018
C        -1.09811206114294   -1.93537318658857    5.14140401776928
C        -0.14681713085312   -0.93152107542894    5.08060348758346
C         1.96945555535134    1.42482841139231    5.29673714410534
C         3.33084278374297    1.55295533567733    5.55308212097953
C         3.76365588207002    1.98443431431617    6.79483648268681
C         2.84515686833973    2.29779644060012    7.78325936047093
C         1.48691558149084    2.19063743507306    7.52690306234019
C         1.04983776697074    1.76698787601160    6.28644411362882
H         1.60790738590872    6.26740308018463    4.82134601465307
H         1.07474719076402    6.09974992002190    3.12551862471458
H         3.55510050053202    5.84989825251952    3.17108968324176
H         3.41948572681993    4.66726051379549    4.49509818178819
H         3.36008119294235    3.57519358646586    0.14775814469426
H         4.27416110112558    4.87148994615395    0.94546356889777
H         2.80644992682731    5.90259915568239   -0.61885071057928
H         2.13698426809984    6.26446081927559    0.96682314070377
H         0.51246277719415    5.53301336418845   -0.93937676719894
H         1.12094783734098    3.86853949179982   -0.63928859446190
H        -1.46553061299311    4.05614856247000   -0.72577478638342
H        -2.47417888085240    4.74742135665655    0.55672423983616
H        -3.09918926933525    2.43667932891102    0.63274450869670
H        -1.44512528314763    1.89348452858018    0.22788721938872
H        -3.68382442729660    2.93314018729997    3.49356262697894
H        -2.90672439775983    4.30448569627331    2.67399648235070
H        -3.07584313789003    4.43069020125921    5.21916818212090
H        -1.88470840981628    3.13341131050371    5.29759509620125
H        -1.25812371070041    5.64594497397519    3.69267487088093
H        -1.07287716908713    5.63028796518967    5.46475189041711
H         3.41947036978657    1.33106847602606    1.49316603423100
H         5.26022371297072   -0.11056785529309    0.73850234308477
H         5.64078633817246   -2.29757243101946    1.81324052087175
H         4.17953813344532   -3.03027362159370    3.66138030618505
H         2.33530245237110   -1.59461055339252    4.42076149632415
H        -0.36152690964533   -0.20755414461581    1.78188367169805
H        -2.05866343681125   -1.99566053891290    1.90281680624300
H        -2.53204254339381   -3.09745079170306    4.06033379957257
H        -1.29050883523762   -2.42978665626722    6.08194743491615
H         0.40160761093188   -0.65758897555610    5.97043878457129
H         4.04643959028949    1.30660080382691    4.78065537917221
H         4.82143667466155    2.07350750156437    6.99223506067616
H         3.18622363044289    2.62809837152910    8.75244933296606
H         0.77037435070758    2.43997421436637    8.29527149749326
H        -0.00911884131957    1.69316479753988    6.07330852392692

