40
CSD_code = PEFDIN | q = 0 | S = 0 | Stoichiometry = C12H22BrCuN2S2 | MND = 3
Br        1.56489323821062    1.64961417587231    0.17607669116164
Cu        3.14402761705834    1.67757235710025    1.89928865544621
S         4.37969646331961   -0.19093200346182    2.53322565339285
S         3.69110062391873    3.59230450793413    3.10660887318025
N         3.26974908311522   -1.22746683390600    0.39716213093770
C         4.08186687542924   -1.40082373139888    1.42142375229960
C         4.75561849052094   -2.72352904712948    1.60942092945239
C         3.75580309463131   -3.83899200562095    1.94332941189737
C         3.03906199896099   -4.40545356596894    0.71989833688768
C         2.13960361547794   -3.39598058128356    0.01070656938929
C         2.91347104535466   -2.21984097836602   -0.58922404470914
N         1.76877951760215    4.64122042665048    1.66677347531731
C         2.71072222355758    4.83258882187075    2.56948874589563
C         2.92475724770039    6.20436176327384    3.12751066995188
C         3.46033063928230    7.17662178158948    2.06737331019630
C         2.37696037494371    7.74312877107437    1.15249017680618
C         1.68945906653056    6.69164820020513    0.28453291507202
C         0.91208264552073    5.65555285567611    1.09968637056564
H         2.78214525444588   -0.33235280041599    0.33094953210358
H         5.46871962551631   -2.61800287586496    2.42692568936356
H         5.30763688861675   -2.98665958017229    0.70276588118671
H         4.30261884157906   -4.64981908315285    2.42786924467202
H         3.02428033193077   -3.46057305691695    2.66014158100653
H         2.42912207625668   -5.25382866226599    1.03717447691444
H         3.78163769293347   -4.78259226454918    0.01181934474418
H         1.39253839369223   -3.00872986806283    0.70585489177424
H         1.61148049279763   -3.90363014503382   -0.79785842264942
H         3.81753664890920   -2.58867382215045   -1.08626704322660
H         2.29531023301205   -1.71046405023357   -1.32962313241985
H         1.69058141086620    3.70780849817523    1.25942672229733
H         3.64459249584559    6.12197867347022    3.94168813479483
H         1.98553054232191    6.58821344146739    3.53512466266635
H         4.22263623242526    6.67065518590983    1.47145199173267
H         3.94408540045607    8.00796135106990    2.58333476689331
H         1.62475800421183    8.25253074096841    1.76048204605884
H         2.83130285486446    8.49124706910813    0.49953996003768
H         2.42800196758441    6.17400720390318   -0.33027030227270
H         0.98976630145950    7.19283165483963   -0.38588454582776
H         0.20222718182294    5.13527818308773    0.45533378565303
H         0.35370726729458    6.15721929270901    1.89764811137813

