74
CSD_code = PEFQOJ | q = -1 | S = 0 | Stoichiometry = C21H35B11N2O3RhS(1-) | MND = 8
Rh       11.13298363302997   15.13719220228794   10.73443691698229
S        11.37425305360068   18.22501947331015   10.73699571601895
O        14.00591411399011   18.11158037116064   11.60602579386532
O         9.97428153125126   17.89976960497951   10.94612518861287
O        11.67413334185891   18.81880197521837    9.45362420915678
N        12.20941275826191   16.87446640968440   11.03811244098503
N        10.30556482515713   15.31791631088784   12.37205834297383
C        13.99537523879438   15.72517897767036   12.01619457791797
C        13.45680607968768   17.01151806172249   11.53214762986944
C        11.77946363972818   19.39563825521520   12.03331637136910
C        11.61378225109206   19.00008388226117   13.34622497913417
H        11.29966952335767   17.98759042417413   13.54840216882803
C        11.87856752340234   19.89412934943011   14.36709235644739
H        11.76989947554157   19.58466034050321   15.39763169023163
C        12.29479736924647   21.19028616515156   14.08185789815649
C        12.43984097010435   21.57326060131036   12.75393247377191
H        12.76485947598768   22.57861458636943   12.52233363701530
C        12.18249815307721   20.67903245046559   11.72937741829414
H        12.30328891110717   20.94702050142306   10.69180210835327
C        12.61017106440596   22.14657674503525   15.19561020393946
H        11.93393802670820   22.00093489370155   16.03588172822392
H        12.53603787301105   23.17756999364946   14.85658586193355
H        13.62733576707799   21.97790784938842   15.55022770741690
C         9.87188720737477   15.61560737036406    8.60945839135107
C         9.13255080432049   14.72450797807748    9.36797595509154
C         9.98890830003632   13.58329455675940    9.69650211026098
C        11.20483691638871   13.73495227704070    8.95393361921374
C        11.21156155306584   15.06745472566601    8.46606412516179
C         9.41874865168847   16.88611931162714    7.96895919646083
H         8.39755656927571   17.12242325107818    8.25704983869960
H         9.46703164357591   16.79594160024104    6.88032238317918
H        10.05914846679560   17.71273517696545    8.27282306077336
C         7.69324913288783   14.86994320814569    9.76161524931713
H         7.46156033275213   14.24739085786921   10.62333292725150
H         7.04006517224932   14.56825674899026    8.93828389455016
H         7.47310157853883   15.90503943625052   10.01605900009608
C         9.47626598205332   12.27471152628980   10.23430517111718
H        10.28850562444231   11.69621980265035   10.66780122600172
H         9.01834804944842   11.68818338973798    9.43293411868361
H         8.72736851269243   12.43473646307592   11.00738697038615
C        12.16910023801879   12.65518379509410    8.56856624325707
H        13.20070890136967   12.98412605788096    8.65590986503851
H        11.98423242626151   12.37073434080248    7.52881335289466
H        12.03865996172540   11.77615965241086    9.19183995566464
C        12.23372823719536   15.68103545937266    7.55531410578940
H        11.92145384998305   15.57567370948995    6.51222606282388
H        13.20267174496813   15.20152249160870    7.67383148287529
H        12.33886588372285   16.74315914758683    7.77392765599575
C         9.59342085601854   15.76131629941744   13.16712262785212
C         8.75889205961945   16.31353433329949   14.20007011547592
H         7.85574271760465   15.71401102214972   14.32051971558623
H         8.48223655202041   17.33021268872366   13.91818957167658
H         9.30450209485067   16.33420482167737   15.14453744836642
B        12.89512334292538   14.43696223873121   11.81757253617554
B        14.36844898389311   14.51363091695513   10.87274168623467
H        14.34986384992947   14.80336368448630    9.72615330053127
B        13.84506216836677   12.98334585109963   11.63153046631908
H        13.50649559047756   12.03508217203198   11.01550180097135
B        13.10232099486442   13.39519241940238   13.21054777156611
H        12.22426174868280   12.75622003255370   13.68347350128242
B        13.21080609821529   15.14637540226722   13.41818455997266
H        12.41529719190738   15.85024264333319   13.94597542566674
B        14.91186789287912   15.64267350633665   13.45243936968971
H        15.19873068805908   16.64981105278133   13.99932356676463
B        15.62082712473491   15.25694616475755   11.89010802469743
H        16.39615812186677   15.99617386309228   11.39322574692786
B        15.55854404362940   13.49470210454969   11.66896311539769
H        16.38936247560899   12.91577309051162   11.05157501919651
B        14.78431204675966   12.80058693899770   13.12537131033663
H        15.08049191013222   11.72562143708870   13.52954468274663
B        14.38717357947298   14.13503792851095   14.22955558461105
H        14.39105191299760   14.01338749889133   15.40950035538340
B        15.89344856249970   14.18717090450876   13.27537807338178
H        16.95876705166020   14.08645922373053   13.78556124165428

