45
CSD_code = PEFSEB | q = 0 | S = 0 | Stoichiometry = C20H14Cl6O4Ti | MND = 6
Ti       -3.04669287126592    5.87452436921158   11.23000215588139
Cl       -2.44485339358460    6.87282273013277    9.32626522702764
Cl       -1.69340267790432    1.62552396152192   11.10081893969227
Cl        0.16875957694209   -0.56745620496093    6.59063520085506
O        -2.51197302530107    4.20456097864139   10.38575100399140
C        -2.99567748065142    3.72587273562270    9.31734834472310
C        -2.22768127312059    2.64500473441862    8.64337762775715
C        -4.22222789643316    4.12270044650698    8.77059062214714
H        -4.57029057933697    3.65871027497542    7.86290160485397
C        -0.74461544000080    0.66222961617778    7.37127200779473
C        -1.57476331873623    1.65463445798539    9.38253382220651
C        -1.36557493218845    1.64823348139738    6.61586845426178
H        -1.26723274203693    1.64915357973919    5.54229715294770
C        -2.10358569665679    2.62414019925982    7.25517619305698
H        -2.56875123548511    3.40784485199470    6.67855763484066
C        -0.84679320533096    0.65735494518674    8.75369124924459
H        -0.36305711033607   -0.10799001607230    9.33846671737322
C        -6.36466761088467    5.42822346433302    8.80846391263318
H        -6.83173350220620    4.58237787827777    8.31357379773237
H        -6.18348404802713    6.20863966603514    8.06939177503182
H        -7.01924253237506    5.83260336534181    9.57768825316364
C        -5.04305712012668    5.05443060885319    9.41724858578830
O        -4.73001401751487    5.59904506007160   10.51924884052817
Cl       -3.64625070998104    7.69667955475297   12.29575758162137
Cl       -5.00358946285320    2.86159905626528   11.81184844489093
Cl       -5.27168285075840   -0.85695648744065   15.65765431046924
O        -3.40783374675621    4.83464641301015   12.75720515400566
C        -2.64568341731363    3.97945648657211   13.30294464907917
C        -3.29292096161546    2.79328928462352   13.92075292495634
C        -1.25403570520554    4.09484563638109   13.30025172915004
H        -0.65153130041991    3.37411958897090   13.82749914076468
C        -4.51568827137529    0.53797941116474   14.99702612194883
C        -4.39847756806846    2.20967796208491   13.28903214542004
C        -3.43107085630829    1.10955712342674   15.64950645274891
H        -3.06904281546578    0.68348765287131   16.57128177262502
C        -2.82705423472019    2.22454159693830   15.10413367757529
H        -1.99426547804794    2.68240513441465   15.61426459800509
C        -5.00138863710611    1.07879770674338   13.81674312564136
H        -5.84203700306390    0.63275822544867   13.31136503597090
C         0.87037571905930    5.26664782981363   12.66464989918883
H         1.35026377771293    4.34114542279012   12.35347514816966
H         1.16593237605714    5.47424856097962   13.69127720410973
H         1.19340167214495    6.08166849856681   12.02073341843668
C        -0.62631396174785    5.12487301535637   12.57901954906940
O        -1.25929443160336    5.93664714162781   11.84870879262423

