45
CSD_code = PEFTEC | q = 0 | S = 0 | Stoichiometry = C20H16Br2Cl2O4Ti | MND = 6
Br        1.26042048560698   -0.92806982570233    5.81589404217186
Ti        3.28520769563719    5.89264949143093    0.93882721266676
Cl        2.58520240577073    4.41322504470086   -0.55727781384097
O         2.74603421579191    4.70020293080065    2.34338782816078
C         1.57558886075872    4.22166920268986    2.47293213830587
C         1.34549859618306    0.65704939524637    4.77364435727934
O         1.59084916917233    6.64586112138847    1.00768111358043
C         2.43849483065598    2.69943552254930    4.21504269795893
H         3.24391188676016    3.40792662450941    4.34603176740357
C         1.45271330019611    2.97454462315788    3.26583548307749
C         0.49746562304886    6.05303413820211    1.25822434459634
C         0.42979885071318    4.84346400296505    1.95841548532581
H        -0.53852725250180    4.41086348712648    2.14598629987145
C         0.36996670507704    0.89595232751566    3.81822193034896
H        -0.42045262951959    0.17809607558312    3.66160425443121
C         0.42369784307804    2.05526471283535    3.06830246558399
H        -0.31917392835085    2.22478227267580    2.30558342987085
C         2.38597986320165    1.55016729276790    4.97710037065867
H         3.14309671961505    1.34306856060033    5.71772995335714
C        -0.76825243112640    6.69740892988323    0.76578288347928
H        -0.60943305936483    7.76692437303384    0.64239449624861
H        -1.60351299707981    6.50889269139203    1.43338062683994
H        -1.00057910468250    6.27499705762026   -0.21237431823042
Br        5.30990244071189   12.71351712968244    5.81582308564023
Cl        3.98509559220976    7.37222761380151   -0.55706468074862
O         3.82432876288890    7.08515930903850    2.34339422735626
C         4.99478775006354    7.56365331400727    2.47303134197958
C         5.22481257152182   11.12839461511125    4.77358099358205
O         4.97957777354095    5.13949857594971    1.00774060222811
C         4.13191682567753    9.08591622957224    4.21512579805617
H         3.32655032127278    8.37738274547669    4.34619204405276
C         5.11763893907506    8.81084270537962    3.26585082017233
C         6.07292758297917    5.73239388619782    1.25818484568258
C         6.14058136411518    6.94191033795863    1.95847102303719
H         7.10889841562126    7.37452952561334    2.14604150011041
C         6.20033062942509   10.88949436968513    3.81813818279488
H         6.99069544267031   11.60739519327560    3.66144714510515
C         6.14661480708692    9.73015723280209    3.06825182696482
H         6.88945329931356    9.56065372017904    2.30549719391718
C         4.18442046824383   10.23520341935704    4.97715464385576
H         3.42734923838724   10.44226964496401    5.71783696395129
C         7.33864622273391    5.08798637927233    0.76579433475786
H         7.17985951500489    4.01845512707800    0.64226302978258
H         8.17386873264104    5.27649940553296    1.43341574609035
H         7.57094765619648    5.51054946706438   -0.21232171752401

