45
CSD_code = PEFTIG | q = 0 | S = 0 | Stoichiometry = C20H16Br4O4Ti | MND = 6
Br        2.64642944210649    4.35260845967464    5.55668528298737
Ti        3.35418449426207    6.00060890103484    7.20252134724394
O         2.84031614557608    4.78923510961372    8.61865001081990
O         1.64526932952496    6.68405616280341    7.26706711636490
C         0.50708939399723    4.96303450876033    8.37105633316454
H        -0.45344948694957    4.55646907235499    8.63739984680912
C         1.67310709002420    4.35356866636354    8.85999733898177
C         0.55195400550258    6.12785223320917    7.60078654338404
Br        1.41718115437438   -0.55423435953817   12.54977229807279
C         0.53408697521508    2.24011593787031    9.62266156597267
H        -0.22296315441610    2.36184035464377    8.86453553006958
C         2.57706797165945    2.94868101825096   10.68003992245646
H         3.38953606098199    3.65791790841865   10.75083593700965
C         1.57116048353090    3.16448610602486    9.73742676267340
C        -0.71984464339943    6.75587605597624    7.11159582170304
H        -0.57131807078335    7.82461814707106    6.96544192285074
H        -1.54840217947147    6.57253556453755    7.78861718708658
H        -0.95549704871212    6.31470940384538    6.14126249479653
C         2.53576938904428    1.85385181057624   11.51902118034434
H         3.30781086761872    1.69367414351833   12.25570718982494
C         0.49267659704425    1.13433220434153   10.44945083737644
H        -0.30351215440896    0.41196607506132   10.35732759071621
C         1.48733666463097    0.95487258958072   11.39872885500819
Br        4.06161350450865    7.64875025298375    5.55718809558169
O         3.86769645798455    7.21211246891599    8.61864990087791
O         5.06305776903381    5.31687414949304    7.26788220172907
C         6.20090885856283    7.03885200623031    8.37075591396207
H         7.16140756418375    7.44569960204695    8.63679656975472
C         5.03486649538683    7.64806281232126    8.85984827299474
C         6.15622292076090    5.87371112421960    7.60094630272570
Br        5.29086730219316   12.55587627041326   12.54962574286797
C         6.17392395389815    9.76136106451344    9.62275943553126
H         6.93104871653613    9.63959365454019    8.86470709870572
C         4.13095901807815    9.05276960071116   10.68014289631263
H         3.31856418013089    8.34345370699640   10.75108418542161
C         5.13678025375445    8.83705249641978    9.73741137969167
C         7.42809969180101    5.24567549287166    7.11193207593151
H         7.27997458922405    4.17685905176992    6.96644519288726
H         8.25690410474741    5.42963721507707    7.78835476551824
H         7.66337468981009    5.68606930198377    6.14120956903641
C         4.17224998972678   10.14763137522510   11.51908550711242
H         3.40024431209093   10.30778793833160   12.25581837587197
C         6.21536099755048   10.86713160856383   10.44955257772300
H         7.01157088804892   11.58947193419401   10.35740822770639
C         5.22061441503150   11.04669079819411   11.39870679635200

