45
CSD_code = PEFTUS | q = 0 | S = 0 | Stoichiometry = C20H14Br2Cl4O4Ti | MND = 6
Br        3.89437074217396    2.02971730574212    9.08591476316653
Br        3.60103740951970    5.60131528200195    8.51823449269397
Ti        2.16028278381987    3.68766927964132    8.83038862308194
Cl        0.50876770183585    0.64208374463280    4.12574725729021
Cl        0.29298289854215    6.54811929577480   13.56909772753901
Cl        2.95162692573409    1.07580688630815   14.82409499239738
Cl        2.29965928815098    6.45640504963115    2.87012015188124
O         0.52157233952695    4.84942904306948    8.64660560081391
O         1.98275243898501    3.37184190135103    7.06009815229046
O         1.99950688408813    3.98218701745059   10.60730163504976
O         0.72966492760804    2.28813773500169    9.06822351923259
C         1.08398444928187    2.86261726714455    6.31030750532459
C        -0.05943328257172    1.82976699095069    8.20315216743604
C        -0.28464579806768    5.20932911685780    9.54218749001434
C         1.64319229384517    4.46216017940639    4.55086464751401
H         1.87902445117461    5.14554197161104    5.35707615197645
C         1.77468786271471    4.85892304225632    3.23209826639001
C         0.03524912575884    2.10859293140921    6.82370903774178
H        -0.71491821613260    1.70864941884493    6.16395138548086
C         1.30297781618970    4.12157716539739   12.83596209999310
C         0.93912459368292    2.28283450671244    3.82287559461215
C         1.93819488860889    2.91805878699967   13.14717934329311
H         2.23109879667540    2.25713084561854   12.34103781664848
C         1.20131492562893    3.17554938044517    4.86391605108625
C         1.07600660833804    4.38253735040610   11.39224487893228
C         0.96570299289111    4.99165425359968   13.87467016654256
C         2.18733413683970    2.57400526797893   14.46368906154124
C         1.82769612409170    3.43515309774130   15.49319413579104
H         2.02739856223784    3.16589116441086   16.51781293402436
C        -0.08889267824326    4.97550983236736   10.91918003108516
H        -0.85622279723289    5.28209861717395   11.60848805079625
C         1.48980633455367    3.97160901701131    2.20140887400368
H         1.59795675111351    4.28282848423752    1.17489752759391
C         1.23076577759141    4.64411220431031   15.19234643569750
H         0.97126173882294    5.33167117277758   15.98182576697464
C        -1.16396110054531    0.91478859421476    8.66191648283642
H        -0.98677559637337   -0.08472117763739    8.26848444424834
H        -2.12369872588688    1.25950671259060    8.28444632093504
H        -1.18426892567156    0.87084741960156    9.74841269970929
C         1.08607620794702    2.68517152564785    2.50237017187541
H         0.88738877413373    1.98025132114214    1.71057011769283
C        -1.52585610646271    5.95231659152506    9.12383441845833
H        -2.40828517943996    5.50355042492002    9.57352979285342
H        -1.61498592139426    5.94855619687787    8.03979761231169
H        -1.45762322404891    6.98231778493635    9.47043560307167

