41
CSD_code = PEGBUB | q = 0 | S = 0 | Stoichiometry = C18H16N2O3PRe | MND = 6
Re       -1.36576210057768   10.15256227078864   15.50993984649256
P         0.73131401349969    9.40010170399801   16.52858318673153
O        -2.40385359389385   12.06639422905127   17.71483052029462
N        -0.31437175872229   11.71111339863036   14.39484818810228
C         0.93119194676511    9.01709344454637   18.30835888158535
H         0.09028838094698    8.40523077199488   18.63291577290858
H         0.92296172712804    9.94640176086814   18.87652545343682
H         1.86615249411723    8.48599770750767   18.48797407914484
O        -3.73506866140226   10.63762565826991   13.57963080217500
C         2.24963782993753   10.14421006631014   11.55270243497509
H         2.94594126404434    9.71132810633199   10.84766593099517
O        -2.71752364804330    7.66123656877541   16.76034225582832
C         0.24781448486406    7.71373583400414   14.39172688923031
H        -0.65752217656181    7.10949469563053   14.55233636585858
C        -2.06341670644210   11.34096784422450   16.89116518197974
N        -0.16527417031713    9.07130066341314   14.10272392033503
C        -2.23801812242197    8.60352267800757   16.31187286822071
C        -0.42741095533201   13.01958351287656   14.54399463937504
H        -1.05608721650202   13.37103497083886   15.35151706590073
C         0.60109373813526    9.81268282946565   13.30463377373816
C         1.07203452385590    7.10175368577397   13.29551421272942
H         1.15326899735429    6.02513077109002   13.30403932945551
C        -2.87025008986773   10.47300772258085   14.31095297148154
C         1.21622685393675   12.08510709270020   12.54020789947646
C         0.22333326786124   13.93263934502788   13.70802788941209
H         0.07584977553500   14.98891655922003   13.87034730027178
C         1.68563449648791    7.85047135304325   12.37765248416941
H         2.28952764840923    7.40569390696480   11.59952890517803
C         2.27804157225300   10.31908448925079   16.18895013223969
H         2.42360852434166   10.42919499998184   15.11444693839004
H         3.12391803710193    9.77886411111278   16.61636010061336
H         2.21263224037906   11.30958028513767   16.63992470730090
C         1.54258040586712    9.28534750698054   12.39382350223300
C         1.04691168999826    7.75401770407318   15.74137961368860
H         2.12101670493019    7.64888178044837   15.55689319684632
H         0.72976142974046    6.96119992139752   16.42367597974483
C         0.46991700299497   11.23610833999083   13.40228840063423
C         1.04303702743821   13.47373091777075   12.71095346700272
H         1.56872513042390   14.15595307400783   12.05876056690775
C         2.09054723269410   11.50960136425055   11.60355190117604
H         2.64639075904336   12.15589635366258   10.94183244373887

