46
CSD_code = PEGCAI | q = 0 | S = 0 | Stoichiometry = C19H20N2O3PRe | MND = 6
Re        0.50263951042588    1.98492689510260   10.54284093290320
N        -0.46525845327636    3.64516686762832    9.54316759116612
C        -1.33226541320062    4.49737534194023   10.06291012546774
H        -1.64086958732892    4.32575716936665   11.08584032060858
C        -1.84625859702307    5.58148095534639    9.34383176902924
H        -2.55372513185955    6.24096589748101    9.82216610206617
C        -1.44226656681916    5.78513589853604    8.05196221827986
H        -1.81521279838864    6.61747777271391    7.47278547459720
C        -0.52040636342343    4.89513438723572    7.46063199864560
C        -0.06154635361881    3.81450902079669    8.26728797275190
N         1.23320978465393    1.84804814302304    8.52486300786945
C         1.97108945451898    0.73485644867848    7.94757424054946
H         2.66746632791748    0.35796704147889    8.71368481689672
C         2.74267602269467    1.11985308966139    6.71485736715958
H         3.55448860519412    0.46458963291937    6.43561473613311
C         2.40435710672361    2.17862770120822    5.98100510170537
H         2.93227132843072    2.43229509219127    5.07204158826716
C         1.35251858701099    3.06245162538659    6.42349061095985
C         0.85971553013694    2.84860442840919    7.73487822749490
C         0.99941411795148   -0.41360103648023    7.60898608064780
H         0.28270508478793   -0.08190312047145    6.86022315937050
H         0.46084013281221   -0.71710177948091    8.50623914856857
H         1.54838571862654   -1.26709241289592    7.21879639571745
C        -0.03339896745927    5.03193747262795    6.15402357633539
H        -0.38510676410514    5.85067826656614    5.54530795667622
C         0.89729928586186    4.13892147157426    5.66934453361381
H         1.29467131304530    4.26928200603365    4.67187713303939
P         2.45322694988235    3.48863835058524   10.71701985913771
C         2.34954962449514    5.17152889207237   10.00163624274134
H         3.27080578168039    5.71404364510064   10.21562633021348
H         1.50503499965190    5.70606013709969   10.43634378983531
H         2.20890075383979    5.10874275526460    8.92304355462034
C         4.00326990107599    2.88313833907318    9.96074198310811
H         3.85938472139285    2.75115145281571    8.88911526297725
H         4.26408981500689    1.92201464125413   10.40216183092037
H         4.80713434090554    3.59815419286221   10.13714229059495
C         3.00753188145451    3.86405071351767   12.42193019324463
H         3.89516098740468    4.49601848904916   12.41056067625951
H         3.22731970652199    2.92796161343990   12.93389965974032
H         2.20531390671073    4.36870013198876   12.95852794743401
C        -1.05150558970822    0.86848255232662   10.17372767613631
O        -1.97974603581026    0.23565927070415    9.95107543155811
C        -0.16451710880130    2.42257564522248   12.32395139284274
O        -0.55782604998072    2.72327186570065   13.36133677740512
C         1.54424595169301    0.48460036378730   11.22458268677672
O         2.19759254829449   -0.38623732844110   11.59314422793516

