42
CSD_code = PEGDEN | q = 0 | S = 0 | Stoichiometry = C18H18AuClN2S2 | MND = 2
Au        3.85598865382121    1.19324449312043    8.71826674082907
Cl        3.80213115952667   -1.02612119432079    9.06911530592658
S         3.89173549112554    3.48486712630527    8.44054919663398
S         3.86557776827011    2.50228761323881    5.57415757037884
N         4.92439126652558    5.57785839953171    5.60473665532606
N         2.90858487104412    5.88564282084915    6.40502587505313
C         3.89927285500498    3.65981831454698    6.75584657171341
C         3.91712895422818    5.04045727809786    6.27251555337715
C         4.63250323806976    6.95489267204355    5.23828766472497
H         4.72168974961740    7.07605752211281    4.15522961864052
H         5.34669700277465    7.62596841424248    5.72534974681988
C         3.19646666066585    7.14928761174260    5.74331616643041
H         3.10514922970991    7.97027758459459    6.45970520011164
H         2.48111211990261    7.31267472516472    4.93147876279679
C         6.24713544620624    5.03072320252255    5.42480056567271
H         6.54186891160314    5.18018322253707    4.38199277534089
H         6.19772540332484    3.95693923121395    5.62073428425213
C         7.23712252894603    5.69177786106003    6.35443415995951
C         7.03512873448851    5.63675597617778    7.72849761791031
H         6.17929760675611    5.11027526603086    8.12603244735537
C         7.93059968145093    6.24598721712816    8.58873416818535
H         7.76821088558871    6.19368826265483    9.65446169248666
C         9.03512394587244    6.91263034152381    8.08419070252816
H         9.73645840867219    7.38333599711943    8.75629905317256
C         9.24073824877910    6.96997609433172    6.71656143640425
H        10.10163820000912    7.48581410867352    6.31871065647938
C         8.34168583715540    6.36616340253249    5.85390218780351
H         8.50544548615536    6.41092582281385    4.78655449035639
C         1.58908390427881    5.60959967008064    6.92075945163559
H         1.32549942180631    6.39946099071556    7.63061572489571
H         1.62854398820203    4.65937691011566    7.45781194809120
C         0.57491986774218    5.54347707473587    5.80371391364819
C        -0.48570996662540    6.43681396963196    5.75235360324240
H        -0.59850338371211    7.18165179957900    6.52733346567179
C        -1.40664299409924    6.36855886670028    4.72070727910966
H        -2.23336402589145    7.06235568049290    4.69337719757983
C        -1.26676738942364    5.41376034640345    3.72838508596989
H        -1.98514864258500    5.36056536558042    2.92446930351049
C        -0.20618793864485    4.52364745482222    3.77145629284368
H        -0.09491024475568    3.77407277336923    3.00301268225910
C         0.71102441720093    4.58645279357712    4.80480577186496
H         1.53185464119316    3.88481691658843    4.83961141298806

