53
CSD_code = PEGDAG | q = 1 | S = 0 | Stoichiometry = C22H23CuN5O2(1+) | MND = 5
Cu        6.74827397208299    3.76502454870021    8.98790106625044
O         1.45802542808260    6.82925476478302    6.42280907295771
O         1.78580090483673    5.92083936661333    8.45029112683136
N         8.25406054773026    4.39191295258198    7.31011697862060
N         8.09653565394424    4.98115514564244    9.96181260335338
N         7.55572088569525    1.95150154917891    8.29237821180035
N         5.63157576981335    4.89082120466425    7.59855431245198
N         5.31047658148513    3.04391793906620   10.20240144828583
C         8.20701560582483    4.98591867902752   11.28310812930896
C         9.15126599594420    5.74577562825141   11.95154097429135
C        10.01519027815811    6.53131834081810   11.20298090019535
C         9.90130907525238    6.51837043885061    9.82236029896994
C         8.92451580849075    5.72584651635283    9.23307987994702
C         8.73580572958227    5.69133355261260    7.73669550409973
C         7.00367626156607    0.77573253190090    8.55768603037820
C         7.53045942837933   -0.41944937548128    8.09991688446026
C         8.68403245517455   -0.37965903266553    7.33093013034209
C         9.25774814532959    0.85020672053939    7.05425639133912
C         8.66258620978231    2.00083080964495    7.55705396253395
C         9.27200823985511    3.36066279218533    7.32096206296290
C         4.41116701496517    5.31973468263030    7.87206698580948
C         3.54623331778091    5.79785100704981    6.89709716131912
C         4.00914181198381    5.86093989647165    5.58194992547280
C         5.29613599635267    5.43916674846849    5.30907982696638
C         6.08072938331003    4.94320435501298    6.34716776304942
C         7.47203286819885    4.42404301142225    6.09271712573281
C         2.16075904547913    6.24864561604268    7.20460403889397
C         0.47114719932773    6.33399162682938    8.82004021048300
C         4.21815362671178    3.23753677533983   10.50581760200659
C         2.86319352951207    3.45843880667741   10.89751248245189
H         7.51154328407262    4.35421374184869   11.81686857603127
H         9.21035188866756    5.72247688641498   13.02731280527596
H        10.76612803331155    7.13878134527100   11.68405112177865
H        10.55898085295098    7.11427050937863    9.20876136476830
H         9.67207713903939    5.97653964588030    7.23266781060535
H         7.97602579008766    6.43661435581365    7.48148964761217
H         6.10862940494559    0.80377483002524    9.16256681863443
H         7.05207622490165   -1.35528808815921    8.33810724350475
H         9.12771128074027   -1.28777214677213    6.95287580453102
H        10.15589456802729    0.91948296368176    6.46033296864425
H         9.95215121713472    3.56467347154725    8.15417451273408
H         9.86834661692784    3.35025260006208    6.39549931791347
H         4.11769551534302    5.29384584921714    8.91043144377701
H         3.35721014635641    6.24108818520595    4.81013771164218
H         5.69035389171320    5.48437932547179    4.30593138219458
H         7.95104560734775    5.02040716654987    5.30001690554102
H         7.37566309899798    3.39822224827419    5.72188170299996
H        -0.27227401702621    5.80412886273326    8.22220571571695
H         0.35761616998635    6.09375950022071    9.87380706380636
H         0.35265695966199    7.40585828339907    8.65608978262753
H         2.37666103750676    2.50413926480313   11.09918000626621
H         2.32823720173797    3.97438482300038   10.09904574818805
H         2.83914131693492    4.06769877689118   11.80097545363411

