61
CSD_code = PEGLIX | q = 0 | S = 0 | Stoichiometry = C27H26Cl3NOP2Ru | MND = 6
Ru       -2.22827364657874   -3.89471099376007   -4.67752383357105
Cl       -2.90955896313174   -4.21158360876948   -2.41180374537597
Cl       -3.76123167417581   -5.56425495986801   -5.42159428091887
Cl       -0.57780821178722   -5.52579893087083   -4.46021151121266
P        -1.49184681274443   -4.08528147212353   -6.89230927063432
P        -0.46050225798069   -2.61116669657091   -3.84892372707500
O        -3.97365286223747   -1.69930275594721   -4.96896916911626
N        -3.29695331980302   -2.63072671553153   -4.85774928870328
C         0.28834681479892   -3.68607123706843   -7.11655786391907
H         0.86755881879719   -4.52117908284262   -6.71353405527353
H         0.47465949474796   -3.64223540313609   -8.19459168983105
C         0.68862637302001   -2.37951720776825   -6.42696389753071
H         1.57079482379103   -1.97203100682855   -6.92877854172855
H        -0.12545083648234   -1.65250260937127   -6.53124014765247
C         1.01725204800497   -2.57103058552805   -4.94362981204753
H         1.65569452939977   -1.76086873720062   -4.57565132508598
H         1.54937532943921   -3.51456032028332   -4.78360300987533
C        -2.39821412339301   -2.88895963169033   -7.91879475716801
C        -1.80389421141618   -1.99876636956551   -8.80611909150722
H        -0.73351264955327   -1.98709303389718   -8.94512822475892
C        -2.58782797718265   -1.11276406813264   -9.52593975261222
H        -2.11801975278486   -0.42083616279457  -10.20957269644083
C        -3.96367814520374   -1.11058204449407   -9.37472883444667
H        -4.56772662207444   -0.41467861861628   -9.93723154724390
C        -4.56418573359236   -2.00406961277526   -8.50151995946326
H        -5.63707521127730   -2.01061342444533   -8.38297017726829
C        -3.78740826853461   -2.88591588806658   -7.77487422183056
H        -4.25176660925715   -3.59414564248603   -7.09655663412415
C        -1.65928684342572   -5.65475289318181   -7.78968645982427
C        -2.65170832643212   -5.81835137544398   -8.75251193075867
H        -3.33146938787256   -5.01040536287553   -8.97754565670210
C        -2.77733617719414   -7.02299046817857   -9.41910933548844
H        -3.55336735880340   -7.14232777628654  -10.16060432428059
C        -1.92267146378956   -8.07381490675120   -9.13206850995500
H        -2.03108511998420   -9.01654201483717   -9.64743504216997
C        -0.93481115490541   -7.91460671572872   -8.17512136962729
H        -0.27073292807906   -8.73302214167634   -7.93973023598807
C        -0.79810842557031   -6.71261578275395   -7.50586504152608
H        -0.04336687768309   -6.61417343416583   -6.74019013586992
C        -1.02098498258986   -0.89132653791374   -3.67311425391353
C        -0.51035580070274    0.20615040558692   -4.35568455691518
H         0.30857064033270    0.09392291499011   -5.05110523299873
C        -1.05060757153850    1.46271489245027   -4.13774858134743
H        -0.65192539672482    2.31368708654425   -4.67066978128255
C        -2.09387569901811    1.63141419705501   -3.24392027328885
H        -2.51056472078610    2.61422528367510   -3.08208812092113
C        -2.60381238135389    0.53950824080253   -2.55796222446657
H        -3.41754352769193    0.66815896329783   -1.86063717168143
C        -2.07322853355181   -0.71713055059523   -2.77258440167370
H        -2.46369301734333   -1.58212881312681   -2.24688402161385
C         0.30509041703163   -2.91100752174314   -2.22921737766919
C         1.02588990926619   -1.85690061514250   -1.66743353202571
H         1.07823312301375   -0.90440456713960   -2.17807769686048
C         1.65768391195089   -2.02254739586228   -0.45052524081631
H         2.21128661785611   -1.20198305412862   -0.01797793431130
C         1.57411796754289   -3.23507685200828    0.21611459536788
H         2.06327028367152   -3.35945058740737    1.17088738430203
C         0.85852353144330   -4.28103169678439   -0.33964754547906
H         0.78645354366084   -5.22461866101935    0.17967116012526
C         0.22492087033713   -4.12529360947545   -1.56044274781810
H        -0.34142546387562   -4.94223182975735   -1.97881333610191

