73
CSD_code = PEGLEZ | q = 0 | S = 0 | Stoichiometry = C41H26ClMoN2OP | MND = 5
Mo        4.41435459515713    2.30396822695892    3.47202607124747
Cl        6.17942442180215    1.26621493704353    4.50903305423416
O         3.27779448570478    0.97952529356027    4.61929128498652
C         2.32999611638483    1.88633889927885    4.67123561238218
C         2.86903827892928    3.26055643498850    4.71236702841177
C         1.06110735596431    1.39026227509156    4.57395673905685
N         3.47703945996067    1.97611051704770    1.98989838619791
C         2.84975878630480    1.42555158630896    1.03857207361157
C         2.50438775442233    1.21354232057743   -0.96888577169696
C         1.71793250986188    1.53806985657976    0.17786718291858
C         3.08674973165198    0.39827386143735    0.04440660233029
N         5.41121031914089    3.65098126568520    2.89275697518647
C         6.11700771465013    4.67984924789112    2.68586639557319
C         6.04847985766318    6.08789247822686    3.15865087195421
C         7.43880828231997    5.00897071661769    2.13720466032289
C         7.35535365988847    5.66477513384164    3.36742073271584
P         1.24830239817204   -0.36624252866069    4.39209333240898
C         1.98736677790032   -1.10923770247920    5.87350059576930
C         1.82929968387871   -0.46257147378183    7.09333667007506
C         2.38406114454255   -1.00584294356301    8.23763703430607
C         3.08835627727706   -2.19746618652847    8.16720432912262
C         3.22718800245265   -2.85329648490861    6.95478616989296
C         2.67644923428249   -2.31387431823131    5.80540315427765
C         2.06347891969662   -0.94197653418813    2.90146759623839
C         1.26961580555714   -1.26304202379474    1.77465449184908
C         1.83431298479291   -1.45884930085810    0.55677785653139
C         3.25904701179403   -1.08364930500339    0.33783048098459
C         4.06586251341626   -1.23065741279030    1.58286662225377
C         3.48095767375451   -1.06491405942339    2.79008246828288
C        -0.44523546442633   -1.01575210517276    4.32935593051021
C        -1.40584287063835   -0.32893536247443    3.59196450898206
C        -2.69994091126511   -0.81120103954367    3.52135190969504
C        -3.04183823539630   -1.97895634866931    4.18484899101293
C        -2.08714974996617   -2.66739422026177    4.91514409217621
C        -0.79003624557339   -2.19050844384144    4.98621701372909
C         3.83405922743274    3.51970554010423    5.82809339104862
C         4.59206477317550    4.70073048223675    5.79391913268151
C         5.52030903238038    4.97196704010889    6.78031911406302
C         5.71293741948950    4.07906960962204    7.82427637281613
C         4.95781194498154    2.92048772061942    7.88289021170650
C         4.02127731875236    2.64112847835159    6.90179278220541
C         1.91193932056660    4.34977592011091    4.38369474233199
C         1.52593823704610    5.28959161668017    5.33730762438823
C         0.61140403854237    6.27778036056609    5.01927955934926
C         0.06230683832908    6.33874486992793    3.75035339582183
C         0.43252059818327    5.40299300892095    2.79734758314254
C         1.34946962126142    4.41711442034065    3.10906109386887
H         0.13582520668231    1.93638616065288    4.55012299300504
H         1.27134332656306    0.46436387929676    7.13222918487700
H         2.26892757460854   -0.49968164065932    9.18488190714128
H         3.52728406257561   -2.61719922809229    9.05985501856434
H         3.76888900117804   -3.78608442351675    6.90339461933749
H         2.77491679496974   -2.82504442655988    4.85755133840826
H         0.20455673338501   -1.39639062694805    1.90219738332096
H         1.24084223839423   -1.71714766189305   -0.30567026551439
H         3.70935380750981   -1.56725334145475   -0.53146818775463
H         5.12921898210272   -1.38712881752957    1.48897936494479
H         4.07713208339536   -1.09282164636136    3.69393126088182
H        -1.13136048788783    0.57584408461786    3.06728366244164
H        -3.44202818368756   -0.27703981455369    2.94712812302565
H        -4.05297942469856   -2.35335464709946    4.13111722792150
H        -2.35288866392064   -3.57845636201974    5.43024899157878
H        -0.04399297957286   -2.72679017494541    5.55590232845691
H         4.43478371307499    5.41136092983831    4.98988426218563
H         6.09863655345926    5.88216071609168    6.72939840628111
H         6.44616017927558    4.28765876352727    8.58840906813213
H         5.09446753418153    2.22499195272265    8.69809346735317
H         3.42732404571473    1.73774843801662    6.97823111356812
H         1.94220001991413    5.24209788531507    6.33377370852182
H         0.32664760406739    7.00168161584883    5.76842898297476
H        -0.64842325919376    7.11292895764447    3.50350057600874
H         1.64957627297841    3.69582597267703    2.35756755207224
H         0.01175061473806    5.44543913074718    1.80410176135449

