45
CSD_code = PEGNEW | q = -1 | S = 0 | Stoichiometry = C24H16IrN4(1-) | MND = 6
Ir        3.26238589378330    0.39200255845590   13.22828052471452
N         4.25604713869595    2.09449557502818   13.65338740040694
C         3.71037160044540    2.88668076113317   14.62209163883700
C         4.29309929307027    4.11314247113225   14.94750594585272
H         3.84568848705285    4.72529085442102   15.71507695269750
C         5.42819331562947    4.54739948825131   14.29772414172787
H         5.87950155827785    5.49795970006747   14.54534117270673
C         5.97567143012209    3.72838449387332   13.31581023230498
H         6.86415326455929    4.01867136889019   12.77669139453955
C         5.36287787419408    2.52711870994294   13.03342050799014
H         5.77060979424802    1.87520051456338   12.27189074907186
C         2.10605054902261    1.08936536638624   14.77185677717940
C         2.51723071155170    2.35476451121813   15.25183769575798
C         1.80886665524259    3.02120786663658   16.25535012779715
H         2.13217992495253    3.99061392939835   16.61378831339127
C         0.68118228716528    2.44922508641770   16.80064555910225
H         0.12975794102168    2.96341910794378   17.57843282625900
C         0.25428681123428    1.20755314654359   16.34547838527252
H        -0.63370445839448    0.75661030524876   16.77438822935671
C         0.95482339065219    0.55121879444104   15.35341311457917
H         0.59040901492902   -0.41678941836580   15.02490014511952
N         2.08105500641483   -1.19163844087626   12.82505295795786
C         0.98339551669817   -0.94532954659087   12.05169341252618
C         0.07825141223857   -1.96717871086456   11.75816650004282
H        -0.78259664927974   -1.75227098178729   11.14428736174984
C         0.27351622911151   -3.24155553473826   12.24508486489550
H        -0.42684236007819   -4.03397734432143   12.02131653467021
C         1.39621345765452   -3.47837411029385   13.03129145069058
H         1.59780750178006   -4.45714624114534   13.43829926951994
C         2.25985798264105   -2.43632215092117   13.28920812076430
H         3.13922973998037   -2.59799691932035   13.89890801808492
C         1.89726325345463    1.28789551277621   11.98735727082677
C         0.85426187289806    0.42153727590601   11.58455998264263
C        -0.20858115938971    0.87366690500129   10.79782895664938
H        -1.00356352849808    0.20205437844777   10.49858633639508
C        -0.25812719396059    2.18937536850816   10.39454249152644
H        -1.08077406944823    2.54299576342977    9.78491368860716
C         0.75492726920542    3.06119104390546   10.77508925642339
H         0.71696602752534    4.09714033287470   10.45704493282660
C         1.80260488750659    2.61332641793298   11.55464637194700
H         2.57320754589510    3.32473062040835   11.83347279165751
N         5.12914846821502   -0.32274163486291   10.77441467438647
C         4.45347370182372   -0.09437909985837   11.68321734805536
C         4.45542768946242   -0.62763197866638   14.48500561609270
N         5.09639492069445   -1.23140611657191   15.23259995639806

