71
CSD_code = PEGNAQ | q = 0 | S = 0 | Stoichiometry = C25H32O13Zn | MND = 6
Zn       -3.27863473448482    7.24601006325034    9.17346975613119
O        -3.00791992803447    8.70709767434954   10.42276364825068
O        -3.03437880089656    6.61743841787852   11.04123330865117
O        -2.22539232498736    7.50123424061444   13.58723176091083
O        -0.67863253198546    7.53889102667562   11.95984229284024
O        -4.81367770709554    6.57812810622379   13.09863519463380
O        -5.72249765667083    6.54647701887905   11.02793312064308
O        -4.50438293513706    9.73762043357699   14.75875875269557
O        -5.33635140669377    7.75717183678110   15.44236802771393
O        -5.10631605031652    8.16748326077599    8.51514420738040
O        -2.61846373862663    8.18119437050865    7.41688070572787
H        -1.82126440111818    8.67285663632005    7.74840602567561
O        -0.86753190552891    9.60702247839976    8.79927466838948
H        -0.10851970948216    9.09700973370323    9.09362865183265
H        -1.47704919116547    9.63002023465650    9.55223875013416
O        -4.45579705674861    5.55544853559429    8.88387917816063
H        -4.05584001590091    4.77110572121793    9.27611567953072
H        -5.13377603179289    5.84467719560943    9.54644005418597
O        -1.05425665681078    6.74070853081692    9.25083072859103
H        -0.84234696562852    7.00362073286375   10.16911805330463
C        -2.99123737838515    7.83653923544181   11.33789078334778
C        -3.10243721182992    8.25518427081254   12.76825332309313
H        -2.91896656211660    9.32720057375659   12.89587993063664
C        -4.55916769724063    7.96064152502278   13.12434480685197
H        -5.20723155217060    8.49858487349820   12.42329589645443
C        -4.84939412128552    8.57822781471704   14.70696786008832
C        -1.04852963054048    7.19716343244710   13.07656733612699
C        -0.21709281211514    6.39603089489065   13.99753183275602
C        -0.74374549487619    5.90536826112289   15.19130592057200
H        -1.77072281038796    6.11666402425262   15.44351475724933
C         0.05784699287632    5.15977579968291   16.03512328584983
H        -0.34630785106428    4.78045661388321   16.96138006285906
C         1.37816886585664    4.90205871189699   15.69876060415742
H         2.00029661901649    4.32130755541808   16.36368461936195
C         1.90496992522023    5.39163336340857   14.51357543484507
H         2.93506726076772    5.19479947298143   14.25615923918645
C         1.11080202112224    6.13683274887649   13.66378810799889
H         1.50754843606297    6.53916880371969   12.74332184692682
C        -5.40048922306197    5.99718077112485   12.08459663156559
C        -5.65852234645916    4.55797230770976   12.33721926676680
C        -6.19928597915304    3.76200642109403   11.32836605538509
H        -6.45418665140310    4.20764815610488   10.37759890641941
C        -6.43328268281287    2.41884542203631   11.55396190138819
H        -6.85586583238835    1.80682458994616   10.77057087577220
C        -6.13308709031302    1.86031908750451   12.78635193143674
H        -6.31877234899954    0.81082057121983   12.96163046817363
C        -5.60670657925975    2.65057009694555   13.79664302611992
H        -5.38669504520928    2.21617910206423   14.76032523894620
C        -5.36984572736501    3.99478442619080   13.57933013004199
H        -4.97887164690621    4.62394847366090   14.36280141024312
C        -5.88194258639082    9.13099834255040    9.22537464461205
H        -6.31917263273903    8.61472825251139   10.07837980951306
H        -5.24751477807957    9.95173043753473    9.57828072499494
C        -6.89711702845051    9.60833409400378    8.19497099375818
H        -7.32012650034664   10.57648648853243    8.44814063454384
H        -7.70292658739698    8.88073446403358    8.10464019503115
C        -6.06137042281141    9.64309524795361    6.91139750294883
H        -6.65028945198030    9.40005124734268    6.03055376001918
H        -5.61706417070008   10.62801637910967    6.76782893449941
C        -4.96146427444513    8.60025614624468    7.16771802499938
H        -5.06644967219976    7.70176379818038    6.54974412251894
C        -3.54992394424363    9.15876653053764    6.97534884866119
H        -3.36986912704006    9.37713626787675    5.91608060604590
H        -3.44046893568561   10.07535995160469    7.56357565501718
C        -0.55448068548713    5.41920929408032    9.08350542080732
H        -0.74801352877835    5.15532134430777    8.04137095308116
H        -1.10032421070168    4.72608878487203    9.73547596790773
C         0.93386433401339    5.36009698845610    9.39422047977254
H         1.30511239068280    4.34987037997502    9.24935456182834
H         1.10714081201610    5.65030219832271   10.42828699623836
H         1.48467490319062    6.03329971138970    8.74181710709997

