69
CSD_code = PEGNAS | q = -1 | S = 0 | Stoichiometry = C32H32IrN4(1-) | MND = 6
Ir       -3.43540300492885   -2.14328542792211   15.69402708865347
C        -2.17187517052259   -4.33333451191008   17.31614934888584
H        -2.52630277994312   -3.74523861809164   18.15268977682402
C        -1.42600738405653   -5.47095467509683   17.53630559171229
H        -1.19667824847154   -5.77673785575660   18.54543433742280
C        -0.97850593149931   -6.20402596496068   16.44181050676725
H        -0.38565654342906   -7.09801158296692   16.57559270460029
C        -1.31243618648255   -5.75879660013036   15.18121928113543
H        -0.98245070497638   -6.30500650934454   14.31114378904821
C        -2.07180434679223   -4.59901156686670   15.01335749883396
C        -2.46690330579626   -4.05972025765108   13.72906451444979
C        -2.15960816704902   -4.64688048337603   12.49981492964127
H        -1.58175152122613   -5.56168501797785   12.44884270773747
C        -2.59047925708056   -4.06887484517802   11.32894087469794
H        -2.33983031852741   -4.54624675201399   10.39029880344401
C        -3.34103673445759   -2.88902290880282   11.34359094693279
C        -3.80936679631312   -2.29314740143506   10.02250426524749
C        -4.68935295824043   -3.31857689760776    9.29305709770568
H        -4.13736492317527   -4.22983490417465    9.07756359108489
H        -5.05235550524772   -2.90762942023904    8.35118825096188
H        -5.54583417645724   -3.57903198455885    9.91165594089365
C        -2.58472622527809   -1.95344960509562    9.16065091779581
H        -1.94897497979190   -1.24065124973173    9.68252960396929
H        -2.89584390806538   -1.51325948369467    8.21344610719012
H        -1.99455930045950   -2.84106890719423    8.94721568013904
C        -4.62994366804233   -1.01279769094485   10.20506317993149
H        -5.52160302266241   -1.20403729174704   10.79768434998122
H        -4.94321569836265   -0.63651409494258    9.23107997500709
H        -4.04246433895096   -0.23876083639143   10.69420983769131
C        -3.62585873104951   -2.31577529242050   12.57147183194918
H        -4.20259167349416   -1.40205435062531   12.60089412589701
C        -3.21338892689411   -2.86336773897032   13.78867677613165
C        -5.49083291003176   -0.07461669473336   14.96860918597855
H        -6.18679032833153   -0.83403436887535   15.30055641111077
C        -5.95804383760622    1.11384188238979   14.45067631208970
H        -7.02041886890184    1.28789038767672   14.37740416259152
C        -5.04047531410195    2.06975208936268   14.02695081484045
H        -5.36986171572087    3.01130305500857   13.61035296056957
C        -3.69852367729840    1.78277080892639   14.15284504897900
H        -2.96031627979499    2.50243520317708   13.83409544932777
C        -3.27804030445601    0.56235554288868   14.68531187738484
C        -1.89180341903821    0.17644101866650   14.84759353298793
C        -0.80388384973438    0.99051204109849   14.52908040239755
H        -0.95254962786887    1.98907763308424   14.13628260599391
C         0.48303448480397    0.53854706291151   14.71483276319241
H         1.30148606243337    1.19944072221383   14.46735449820847
C         0.72647150049922   -0.74177121823303   15.21774661367450
C         2.14949400020856   -1.22628353012711   15.46678930465450
C         3.13182987584009   -0.64923149245937   14.43794924458231
H         2.78219728606201   -0.84883910250382   13.42696489890639
H         4.11287284969923   -1.10721461139348   14.56118293998037
H         3.25354101151526    0.42410112583668   14.55853416473278
C         2.55982645167227   -0.76414729903311   16.87240347354235
H         2.52850175278077    0.32177148290406   16.93875086370284
H         3.56930907780976   -1.09979515081764   17.10918005253836
H         1.87342902616147   -1.16733435338024   17.61386632620767
C         2.24979103654369   -2.75584339025581   15.39316285813919
H         1.73873610549366   -3.22932009097299   16.22728262606468
H         3.29496248033641   -3.06274548803071   15.42868698282653
H         1.81242244562574   -3.12219402617176   14.46651909150542
C        -0.36798667406955   -1.52775112825472   15.54504011244764
H        -0.19436613619794   -2.51127416420090   15.95947984852382
C        -1.69078924453950   -1.11651722462311   15.37760787601929
C        -3.49903491080381   -1.55819937553241   17.61689388321993
C        -5.23621492729536   -3.01819303326047   15.88185021307892
N        -2.49490431673855   -3.88221991278719   16.09635067267490
N        -4.18956436381653   -0.37132716404004   15.08876008905488
N        -6.28453306595955   -3.50049725903968   15.93633733567400
N        -3.47889723745259   -1.23399924960914   18.72554027022640

