56
CSD_code = PEGSEC | q = 0 | S = 0 | Stoichiometry = C24H28NO2Rh | MND = 8
C        -1.04261844522703    1.53247351292652    2.93750558770904
H        -0.69827056589160    1.79780141217687    3.92724318213862
C        -2.21101013113143    0.81467064903046    2.76500880545311
H        -2.80706012333178    0.54085232017091    3.62064765900619
C        -2.58856720489402    0.44978095993816    1.47905122021479
H        -3.49149536832969   -0.11793914800448    1.31019623833029
C        -1.78358343401716    0.81985900585580    0.42149874821561
H        -2.04304722776317    0.54199310199473   -0.58721929870443
C        -0.62010642107882    1.55232788500113    0.66054439091184
C         0.33036217910040    1.99018731795296   -0.34399700706417
C         1.46021310768869    2.64479390795734    0.17432676710388
C         2.47132556958800    3.00536345068439   -0.70595543708802
H         3.38308283943071    3.45294881279234   -0.33622267195451
C         2.33722768177906    2.77940668581593   -2.06400275221366
H         3.13155972291705    3.07346307956271   -2.73675942138435
C         1.19831301756974    2.17053994301272   -2.58786496507158
C         0.20467809775998    1.76735681882503   -1.71630234341895
H        -0.67115801151813    1.26821396333745   -2.10604825266933
C         1.07832275545860    1.94831082861346   -4.06654832381544
H         1.08877950776993    2.90083299772435   -4.59559285073731
H         0.15540182135223    1.42794121285268   -4.30964731333999
H         1.91702352911802    1.35662751586439   -4.43084168152474
C         3.05080455571427    4.29835477513656    2.71421043450036
C         1.95711869366430    5.02253248768064    2.14926413109128
C         0.81248740858710    4.77221718247010    2.97461397608156
C         1.26182142776119    4.07874375110398    4.16618300602081
C         2.61508971985409    3.78105797964783    4.00107987493451
C         4.49309214019544    4.39473907155662    2.30702966629486
H         5.03752057949406    5.01396410819837    3.02277613142102
H         4.59330273424090    4.84560445640091    1.32286684327869
H         4.95836738133549    3.41054861575431    2.28323948415589
C         1.99741226222516    5.97766470832983    0.99569833167129
H         1.08671014382484    5.92412941106806    0.40310073317157
H         2.83924854985133    5.77674125478718    0.33941685722685
H         2.09648532675648    6.99562823223529    1.37843838818298
C        -0.51817596018533    5.44985715100088    2.83024796299145
H        -0.50397235807740    6.40297980578907    3.36304000542385
H        -1.32034437566945    4.84153543102958    3.24474479411086
H        -0.74427709409393    5.64775997038316    1.78468044157495
C         0.47096565212904    3.81212554856867    5.40817379925020
H         0.60734581755621    2.77925283206090    5.72692256406111
H        -0.58870789505208    4.00376740070184    5.25522640682084
H         0.82237260819722    4.45984502506294    6.21389588082481
C         3.49316139426821    3.14312370507178    5.02780974824240
H         3.67670534873412    3.84847700636226    5.84113292448168
H         4.44753483560265    2.84885112183879    4.59909244586190
H         3.00964730487755    2.26102177404948    5.44323988884666
C         2.24558126829020    0.35752511804818    3.16282825223732
C         2.92014093772565   -1.00796086996349    3.23483413920542
H         3.51923500935476   -1.17392904330090    2.34493292592241
H         2.15372070914099   -1.77533441950815    3.31532027050460
H         3.54504655806319   -1.05266087213773    4.12346758639880
N        -0.27023748674358    1.89721498575664    1.91844346296321
O         2.45393823055193    1.00505562518109    2.08699512969043
O         1.55335971141054    0.76850473727479    4.09202566731981
Rh        1.48542596407032    2.87695569827713    2.15610756514141

