67
CSD_code = PEGSID | q = 1 | S = 0 | Stoichiometry = C21H35N6O2P2Ru(1+) | MND = 6
Ru        2.33235203047898    9.19620986789883    4.99861228520014
P         3.88319961413582    8.34302678805120    6.55089704812374
C         5.46144348258863    9.22527330110273    6.78782415902842
C         4.51983406301720    6.67283545656242    6.09205413463804
C         3.32623234806532    8.00768944810746    8.25460129458862
P         0.76661606703629   10.33454416248627    3.65925110816510
C         0.27396603618403    9.37823333819846    2.15993803214814
C        -0.88030939669624   10.70361880076114    4.34998008422989
C         1.25956634502718   11.90894886407389    2.88241360021879
N         2.25176249522962   10.68065657761855    6.11215899980184
O         2.93648597143003   10.71820289881055    7.14337766241518
O         1.51292729021930   11.63115703010896    5.82026081831160
N         2.42286923690123    7.62017552496010    3.82213080110714
C         1.58474510433576    6.59900597803742    4.04162432070825
C         1.63509531723950    5.46211144614419    3.24489006844675
C         2.57808337343995    5.42564515571635    2.22654486794998
C         3.44233756413056    6.48982218220699    2.00726821291592
C         3.33317030522057    7.59631794035184    2.84017199267382
N         0.84440791756212    8.02239590354433    5.79258332118501
N         0.72528116630027    6.83776435826575    5.11346754602719
C        -0.28128632179794    6.08603982200056    5.66700610124343
C        -0.78892224370070    6.82234380196418    6.70617451721682
C        -0.05961161635263    8.02693578450786    6.75379975943596
C        -0.72639514995237    4.74440477580505    5.21899549770376
C        -0.24294717822434    9.14288623170397    7.71104992251320
N         3.85556386403114    9.73576464218109    3.72900884582667
N         4.09598357613440    8.76270211602800    2.79406162300601
C         5.10254191583174    9.16745019296245    1.95276407217382
C         5.48984409186267   10.41086705920920    2.38127517058350
C         4.68796699076494   10.73243987097806    3.49426225050027
C         5.65078066385727    8.40411768966016    0.80581203731509
C         4.73875410821188   11.97509497581543    4.29965530842205
H         6.08146847161762    8.65936504650389    7.48257009613975
H         5.25656788916845   10.21161587812184    7.19579271304806
H         5.97947089010587    9.32106143081396    5.83412918025689
H         5.23137341576411    6.32446103136328    6.83933321283595
H         5.01969876664436    6.71241425982709    5.12420542431023
H         3.69780808555098    5.95945933197000    6.03200779994588
H         4.14841402016748    7.56083444696824    8.81295829971232
H         2.48148339546919    7.31971696043270    8.23970310543582
H         3.03032364545320    8.94417139014744    8.72007548269624
H        -0.44727037537323    9.94547354016765    1.57336556762246
H        -0.17902901949270    8.43022292508117    2.45049783602882
H         1.14644647207540    9.17322543517766    1.53950892241995
H        -1.49111958909946   11.16661611450393    3.57544153069435
H        -0.76695000980029   11.38682597411359    5.18759661988335
H        -1.35684709776092    9.78341083825548    4.68639192806580
H         0.44505815937301   12.26064104590181    2.24982713107714
H         2.15230407526912   11.76027918978526    2.27578114655460
H         1.46176509114422   12.63807778316292    3.66277801323143
H         0.97998960803688    4.62578197339493    3.39320588446440
H         2.64128324440732    4.55465410971129    1.59533385783964
H         4.16428199984927    6.43446733948698    1.21586121615365
H        -1.58829760691360    6.53965552612103    7.35921394561630
H        -1.54948627595459    4.42721744264498    5.85389735704085
H         0.07189854544115    4.00828022446858    5.30802849243193
H        -1.08149939289448    4.76468195637942    4.18917145259689
H         0.42816383102493    9.96622633256340    7.48629437559038
H        -0.05088431677601    8.79936359536063    8.72634292711190
H        -1.26960883487014    9.50276153212511    7.67310664008577
H         6.25516543774351   11.02437869348382    1.95316161921814
H         6.11500145200778    7.47341177983181    1.13081551094554
H         4.87963646511673    8.18141942750820    0.06918220070130
H         6.41354161988622    9.01023312261603    0.32413708501320
H         4.01060028569203   11.95066108222781    5.10455638282836
H         4.53753084757340   12.83863285274321    3.66791476847892
H         5.73227777184247   12.10271840121117    4.72619681010485

