75
CSD_code = PEGSUP | q = 1 | S = 0 | Stoichiometry = C29H33Cl2N6O2P2Ru(1+) | MND = 6
Ru       15.45831104903606    3.01163948135056    3.08889225316072
P        16.72570391125309    4.65906715735396    4.25219096440996
C        17.30553600609989    6.15492417532220    3.37937566240849
C        18.35025731149579    4.02450358923264    4.86428151615100
C        16.08063697067560    5.37258993520135    5.80462761650227
P        14.00274279565357    1.60561644670785    1.88527727714329
C        14.68866721839807   -0.09269089874791    1.67100589939356
C        12.37038811307088    1.20616256730704    2.59116571863796
C        13.60756569223325    2.00984016776712    0.15220931988380
N        14.17285066906195    4.32849570856989    2.84412449153222
O        14.38793070442392    5.45676104388504    3.30931203455216
O        13.12831064164430    4.08109941147675    2.24280888290336
N        16.87354999149307    1.65117356247037    3.41018255840406
C        16.85310298922440    0.94510701053712    4.54246775775311
C        17.88396866844448    0.07318984864988    4.86930154869533
C        18.94548958620340   -0.03435618137195    3.97889664106999
C        18.97009192805066    0.71255689034069    2.80729235630216
C        17.89732370973446    1.55954485894865    2.55932738038860
N        14.80772128744136    2.12344414534221    4.88979717818578
C        13.77184921380579    2.03540311411379    5.71844362131341
C        14.02419600108668    1.02822688169889    6.68335255148499
C        15.25545894195212    0.52290876130407    6.38923526497263
N        15.71316049327725    1.18727186783367    5.29481921502101
N        16.66013686541928    3.21167564708128    1.36231661341260
C        16.69890278922272    3.75617685085954    0.14991575088874
C        17.83230092341730    3.27046551072197   -0.54906253144181
C        18.46250521411532    2.41279946019926    0.30250567650368
N        17.73614611268116    2.37840552733003    1.45120007953006
C        12.54137222041046    2.80998898151715    5.62453304594487
C        12.54482891860895    4.17442412203514    5.34972001397367
C        11.36030937085236    4.87502164629490    5.24287728282971
C        10.15342996180417    4.21372132029938    5.42133667297372
C        10.13283115457724    2.85819933171805    5.72692483144886
C        11.32011670067830    2.16453137570941    5.83328822410018
Cl        8.67192795007048    5.07660959875339    5.27941025711261
C        15.70384566276496    4.66594204997716   -0.40097246378508
C        15.14284936515116    5.69213739676109    0.35394830538363
C        14.18038842092933    6.52040085907923   -0.18713930907150
C        13.77451431413946    6.33380880071077   -1.50116351723645
C        14.34584509540537    5.33324337137307   -2.27826574295196
C        15.30771636328979    4.50979488151071   -1.73160546185570
Cl       12.56768685810681    7.35429006081658   -2.18057919549664
H        18.01883752448745    6.67626424963543    4.01740958834857
H        17.78941130936727    5.88712542815725    2.44064958203358
H        16.45429523680617    6.80220715822879    3.18379689502448
H        18.88274019168202    4.81674508321070    5.38837141858145
H        18.20202564783163    3.19219342382633    5.55200649521550
H        18.96557941473870    3.68605635832682    4.03084255383941
H        16.87790987283914    5.93637504098163    6.28851776844491
H        15.25642715779646    6.04126222915681    5.56906997173873
H        15.73717423067771    4.58505018069491    6.47467250887320
H        13.98788468529609   -0.71203938602000    1.11286007428521
H        15.63148338146665   -0.05100116056153    1.12527018837853
H        14.86652370506410   -0.55278169976164    2.64316379438638
H        11.84202450489883    0.55198528462060    1.89806737487821
H        12.49084063522534    0.69847692434676    3.54667852105737
H        11.80766266362578    2.12548426687825    2.73306515438485
H        12.92213291988889    1.25507787860191   -0.23257186191671
H        13.13863845592811    2.98969926052774    0.11042201963648
H        14.51601676015210    2.01267862863535   -0.44752117091834
H        17.87234405984229   -0.49811889724125    5.78123295232791
H        19.76212029453791   -0.70061368667794    4.20252738505640
H        19.79859534718722    0.63587867727314    2.12478494799173
H        13.37948774767575    0.74867160504315    7.48991442196968
H        15.82281999626538   -0.24927133837914    6.86626943259887
H        18.13469539588181    3.54848529776221   -1.53675920632242
H        19.35278100219466    1.83276726059252    0.17322430798059
H        13.48094312342140    4.69602783958288    5.24287515715555
H        11.37385966862132    5.92897321180156    5.01801226759340
H         9.19101201495705    2.35516272589158    5.87674399662918
H        11.29976367786135    1.10813190766577    6.05611335210184
H        15.48161302086154    5.85998862288884    1.36233710378626
H        13.74451587669686    7.30493120201658    0.40961369120504
H        14.03364417685302    5.20360260835788   -3.30209066843742
H        15.73812814397137    3.72360747589086   -2.33384626043240

