32
CSD_code = PEGTEA | q = 0 | S = 0 | Stoichiometry = C9H18ClCrNO2 | MND = 4
Cr        6.82089902609197   10.83132229914150    6.93672273184007
Cl        7.85969319221743   12.11302733080812    8.20323800329429
O         7.79182696439407   10.35058386917544    5.82626027738141
O         6.07550905964977    9.78488117762095    7.80648300953917
N         5.56918383730478   11.89805909694635    6.15644711867665
C         4.21322619081107   11.93925597967214    6.71490079700894
C         3.35303875173032   13.12393820854733    6.22801689892445
C         3.44689056906917   13.35123635307052    4.73304539543501
C         4.90496131644246   13.63395511564764    4.43371046993004
C         5.84124199491603   12.47517436810250    4.83534921778195
C         4.29704172965384   12.09280138772248    8.24665444101657
C         3.49137913640566   10.61939141469107    6.38502202408575
C         7.26324171621881   13.07073757717302    4.82282044077943
C         5.75665315254559   11.36455326156402    3.77164152070561
H         3.68484683481099   14.03229498651777    6.73704861171231
H         2.32246758030597   12.93029693180998    6.52782837330323
H         3.08981681194000   12.48395704396105    4.17793317916574
H         2.83242824649458   14.20576532047971    4.44436383177575
H         5.05322661235958   13.82587750186480    3.37037245985746
H         5.20197679283363   14.53219063088404    4.98073376742890
H         4.65727657618172   11.18330011278743    8.71988065026589
H         3.30692297993508   12.31006012230273    8.64189830821691
H         4.96208465451648   12.91622192409545    8.50787246899206
H         2.55751680330013   10.56631611934694    6.93885464444460
H         4.11826181766214    9.77696135877231    6.67448659127138
H         3.27271113290299   10.54120780455583    5.32380396921391
H         8.02177254986145   12.29269420116822    4.83638481584625
H         7.40746452749645   13.72213335359371    5.68503540948255
H         7.39940561129947   13.65996827375145    3.91837396012430
H         6.13591717236687   11.73836784851759    2.82393255740494
H         4.73350875571717   11.02810735819622    3.62943401004230
H         6.36360790256440   10.51436166751158    4.08015004505217

