113
CSD_code = PEGYAE | q = 0 | S = 0 | Stoichiometry = C58H50Br2N2Ni | MND = 4
Ni        8.00027831494766   14.95388859288499    2.92009587997960
Br        7.47443893562188   15.93319287771108    4.83002405031666
N         9.94562079921553   15.07093164254747    3.27276794728581
N         8.56496247506097   14.25687737820654    1.13656017817458
C        10.60962394697082   15.47847279700412    4.44600456480665
C        10.80269405897933   13.80140091390416    0.05983898739252
C        13.19121151528238   14.59345438192724    2.68316422280497
H        13.20105656122534   14.95817137120013    3.69830417596556
C         7.78861792338950   13.93153639686642    0.00464433671870
C        12.02171143315920   14.42192659551316    1.98693227146162
C         9.84913112990205   14.20750693263670    1.07976808885519
C        10.80523585023440   14.55590373403468    5.47597225472986
C        10.65757124829165   17.79955018163416    3.49788108664831
H         9.66561416934380   17.52514529894482    3.10285692225331
C        13.14897606921336   13.16081239403143   -1.32620283807765
H        14.03794686388611   12.90364244258758   -1.88347385819218
C        11.66104716787982   17.64681216715747    2.38225991279419
C        11.63973202387434   17.19005713165942    5.76145313948791
H        11.93525024232402   18.22129491089237    5.88710186221652
C        10.71637701379884   13.35076423061526   -1.23540043749917
H         9.76725323879375   13.23604029468369   -1.73758017822539
C        13.27287509036503   13.62497353263128    0.00230680800273
C        10.98257846462425   16.81486830265583    4.60201938679755
C         7.40318082644012   14.98281898003261   -0.83660938109858
C        12.07985056756831   13.93768352275393    0.65730468831565
C        10.30934740122422   13.13578488063909    5.29148307043414
H         9.36321278878201   13.18794427182256    4.72185518623388
C        14.40076163415860   14.27421677512514    2.03939804980191
H        15.31846166124232   14.40591624201115    2.59304308057263
C        11.46094532206264   14.96781972138194    6.62313202188782
H        11.61408460888607   14.26044121532171    7.42501091167202
C        10.60891948558338   14.62038631258728    2.26700285434946
C        10.52969329024761   19.21062227507641    4.03052608358336
C        13.02669697025224   17.67475236059266    2.64144358167311
H        13.37199405062149   17.83809448262442    3.65211372836281
C         9.97283850770330   12.48420853765152    6.61473431246218
C        11.91034323996663   13.03692054778515   -1.90946805601565
H        11.84037104177333   12.68225470122387   -2.92738406979394
C        11.89793002031749   16.27657450003431    6.77348056937488
C        14.45828675999780   13.80925625991615    0.74953086041197
H        15.41115700078421   13.57988363280686    0.29543406120794
C        10.94871067376514   11.77233060071274    3.27127687482787
H         9.90987013357623   11.78543395186271    2.96976497901730
C        11.32009353952837   12.38556406939200    4.45909393779685
C         6.36973645863455   10.86971577780286    1.22873611960269
H         5.75625948056882   11.63753505948218    1.70309299252232
H         5.80710169423135   10.46859211225709    0.38472262763536
C         6.65916197001626   14.69514816483889   -1.96736385753985
H         6.35960558309852   15.50149097174608   -2.62007201263494
C         7.67424344936835   11.50358121768432    0.72868940121320
H         8.19183041377021   11.91962715537460    1.60140106287992
C         9.03438080921571   13.11177932578755    7.42940772335464
H         8.58197802023139   14.03819644917652    7.10591549567895
C         6.29593701360007   13.39276793336793   -2.25753891597979
H         5.72353456467378   13.17669487797964   -3.14674488272423
C         7.37664566825223   12.61947066337157   -0.24078552254156
C         8.68104317843225   12.55824056293629    8.64477598755373
H         7.95298090019988   13.05648679296016    9.26701189009510
C         6.64136020273551   12.37275165912825   -1.39309421731901
H         6.32597781848016   11.36487282741678   -1.61319641259084
C         9.54397613339362   19.45824786679180    4.98202248707962
H         8.90892202461822   18.64925829842594    5.31357268713276
C        11.23469975460143   17.44193722136747    1.07763107606725
H        10.17526787287998   17.44145227400303    0.86323014196393
C         8.84166903631035    9.29272716802359    1.07510317956046
H         9.45757868742214    8.53261995557775    0.58800379634364
H         9.39638659661219    9.66449608725646    1.93927924185971
C        13.59376750967814   11.70165260410035    4.05187033461303
H        14.62703123846071   11.66942118045916    4.36521785972474
C        12.58722648103595   16.70703888109374    8.03100363872437
H        13.25269927468440   17.54646879113101    7.84330963964060
H        13.15810659528082   15.88804270386334    8.46284717394908
H        11.84555180508346   17.02289417248526    8.76464395028350
C        10.53569795140715   11.28706133539541    7.03047578598449
H        11.25312965251021   10.77615684286063    6.40417488948274
C        13.93960046226171   17.49613930854776    1.61812396726087
H        14.99806475414967   17.52719421785791    1.83168722404989
C         6.66137631879209    9.74338455244493    2.21410049968775
H         7.17473756997455   10.14396512731266    3.09185918458614
H         5.72175962718590    9.30376615717593    2.55310485409166
C         8.57668068497032   10.43620163945941    0.09878625323451
H         8.09316295559209   10.03775455354696   -0.79544132984143
H         9.52356309746217   10.89068909915962   -0.21113986369234
C        13.50251527959630   17.27195716063007    0.32331042094545
H        14.21592890780369   17.11967999512556   -0.47289315385773
C        12.65674670136556   12.34211507088152    4.84109280141112
H        12.96035725608715   12.81505190149687    5.76363669741798
C         7.78792368243620   16.38993048169266   -0.49850194181698
H         7.60833319952723   16.58618019859987    0.56450346672839
H         7.20414183754600   17.09850909834361   -1.07988548082742
H         8.84613030210184   16.56132659155885   -0.70535322756806
C         9.25518852124345   11.36752441616523    9.06050038511437
H         8.97949672882837   10.93345113326714   10.01025621449564
C        13.21365878539855   11.10830496897792    2.85942639217223
H        13.94746794254822   10.61918251291611    2.23638436278983
C        11.33286204958896   20.25647653644069    3.60172760450538
H        12.09448109452280   20.08777944850567    2.85391155359602
C        10.17827386014320   10.73331172475334    8.24917075477484
H        10.62449744139428    9.80009365762082    8.56164921255224
C        11.16131949635762   21.52844194424364    4.12361434165561
H        11.79356002452334   22.33477256010324    3.78041371419205
C        11.88734924129320   11.14468433564238    2.47032780089812
H        11.58379960088204   10.68523733024951    1.54076150233375
C        12.14584999492837   17.24731811030313    0.05441319452071
H        11.79704768764318   17.07728645528488   -0.95466396819755
C        10.18695771318661   21.76713125620718    5.07562955961066
H        10.05606410666250   22.75991945434751    5.48031715197135
C         9.37644239938081   20.72722181264956    5.50200950022266
H         8.60832168285555   20.90476342191607    6.23962578214999
Br        5.86785195341766   14.54028057309510    2.52487852857750
C         7.53234694501526    8.67692235918576    1.55761100635604
H         6.99791485290797    8.24335459458519    0.70891037963012
H         7.74188334002889    7.87393696222425    2.26732518289616

