72
CSD_code = PEGYIJ | q = 0 | S = 0 | Stoichiometry = C24H40F2N2OSi2Ti | MND = 9
Ti       -0.05478238999019    1.11488711900275   13.57371134848579
F         1.41698296452924    0.15306274622827   13.40258124716130
F         0.39383245770999    1.35719780059719   15.26496691058510
C         0.20186164328129    3.20767614475087   12.35955555310160
N         0.51718936917400    2.04564496823049   11.83330650664535
N        -0.40682318891405    3.13854383364028   13.52198830150148
Si        1.78104786957293    1.82340475803674   10.65986343592290
Si       -0.42274913414102    4.42877594170197   14.68772787807161
C         1.60854798671284    2.93547793773216    9.11105381888370
C         3.45350731630352    2.14737358778176   11.54555602045947
C         1.75285321204633    0.01259073719385   10.06844557792023
C        -1.57040630391853    3.93564279607813   16.12624039348886
C         1.36357723293339    4.61222418905216   15.36770259171353
C        -1.05746910166452    6.09640899235522   13.99353617836183
C         0.47060106487845    4.49426652535795   11.67404185753020
C         1.65579802114424    5.18354241747111   11.87739540155310
C         1.90023859058222    6.38582682491082   11.23434817534597
C         0.94890283974644    6.91787610496210   10.37056241190399
C        -0.24510896112404    6.22413172335024   10.16438002341451
C        -0.47881588389243    5.02889128510494   10.80834621794436
O         1.08026458890051    8.08823645078136    9.68799947101306
C         2.25770711450720    8.83962596117130    9.85765109579544
C        -2.40942186631573    1.06997419568256   13.24279736753912
C        -2.10677743433836    0.37743157259991   14.44097160426307
C        -1.28374054955816   -0.73445363555625   14.10151844732524
C        -1.13778173714510   -0.76718682710819   12.68500367545592
C        -1.81065096634498    0.36220439988214   12.15724416671930
C        -3.38265107707865    2.20086175113281   13.06737335227263
C        -2.67539499202958    0.59933414368708   15.81209755979459
C        -0.78213161605489   -1.77763386680113   15.05770758589119
C        -0.53785352733589   -1.92390419899418   11.94022803642937
C        -2.08465318307539    0.66243669670350   10.71109120302835
H         1.89838957664528    3.96201811643445    9.30488052672671
H         2.24291838122483    2.55790089079179    8.31657847127025
H         0.58946744760707    2.94909169340687    8.73853265797060
H         3.33876693626333    1.95300156534430   12.61217277481826
H         4.23260465200444    1.48898881258717   11.17449540548242
H         3.80269615211788    3.16803182130212   11.41834476120931
H         1.78771727259574   -0.65995820053378   10.91750489629723
H         0.87576608579805   -0.22364020504838    9.47509600735783
H         2.62280922536583   -0.18439550947218    9.45024544728549
H        -1.28329884820333    2.96775233563724   16.52014642789922
H        -1.48530236868843    4.66138956970824   16.92855013996368
H        -2.61522326976876    3.89586135017474   15.83680171745920
H         1.88805845740575    3.66259639026519   15.26184366466647
H         1.93184647879892    5.37779685392100   14.84777322014000
H         1.36195145820143    4.86925423161600   16.42202382875101
H        -0.31909697445628    6.59484049009037   13.37561199225785
H        -1.95161063358654    5.96627595963368   13.39243519681589
H        -1.30673692698320    6.76281441705453   14.81208024653019
H         2.39686268503554    4.77567211636106   12.54692141125116
H         2.83358513981429    6.89567673758048   11.41518048698020
H        -0.97308679637795    6.64895668090601    9.49162899339094
H        -1.40646447518636    4.50111096306570   10.64145821633483
H         2.13747768667465    9.72011008527064    9.22859834311206
H         2.38769237166281    9.15442092061051   10.89809414333577
H         3.14186157475649    8.28184629237468    9.53241310835618
H        -4.31724195819128    1.82576732073783   12.64150986122749
H        -3.60613565640066    2.67738921069910   14.01781758805425
H        -2.98578310839179    2.96094100789185   12.39434811417729
H        -3.31003444782965   -0.24755459801182   16.08443916334506
H        -1.88173788713605    0.67607398642220   16.55540905221520
H        -3.27808775795273    1.50215626415968   15.84989079253123
H        -1.51498899295457   -2.58129893241372   15.17074787901607
H         0.14994395437791   -2.20915752269833   14.69398767045892
H        -0.59841010845300   -1.33775911611504   16.03744323827581
H        -1.12598984063730   -2.82479920445975   12.13183088742958
H        -0.52983497561749   -1.74408115933767   10.86901451636123
H         0.48326049944144   -2.11324631717473   12.27171931591536
H        -3.11529922661664    0.39405775599217   10.46363692930812
H        -1.95083552669004    1.72266814448811   10.49667558898453
H        -1.41917661441881    0.10145570432652   10.06102390145724

