110
CSD_code = PEGYOS | q = 0 | S = 0 | Stoichiometry = C57H48Br2N2Ni | MND = 4
Br        1.06841734260527   11.96108151020336   17.44665983729948
Br       -0.11434042456141   14.47238238341434   15.77611316648366
Ni        1.75827098769508   13.29937790317592   15.80625961144024
N         3.62879511629424   12.97434270528295   16.07245736311149
N         2.32142491152559   13.85523551299861   13.93307961290173
C         5.37122849944498   10.52282143989729   15.04744383501594
C         4.90904119913178   10.76046949922374   13.75972560903846
H         3.84534645230947   10.73646812976730   13.56469045439688
C         6.74187497108465   10.54259671750209   15.27869525416143
H         7.11409947699910   10.35953091178500   16.27641479524470
C         8.21580078246273   14.39674744044511   13.79013403669742
H         9.18497870148089   14.64139055579467   13.38055578822118
C         5.79058288886852   11.02450308008220   12.72660115936537
H         5.41405896103634   11.21698643240700   11.73188968290337
C         7.62574402912335   10.79417681635437   14.24508962750678
H         8.68879271009905   10.80040583477255   14.43711664247058
C         7.15287495089354   11.04330281031992   12.96783169031292
H         7.84282699151422   11.25005980254968   12.16319872147474
C         8.10370959781694   13.95117585899607   15.08371644896279
H         8.99532145330518   13.85045207280151   15.68488980770242
C         6.87186241905033   13.60377894831745   15.66684256789617
H         6.84031526637502   13.23558856933992   16.68033940011300
C         5.73412048567738   13.74430232423911   14.91268218832877
C         5.84811466393855   14.21245985969207   13.58138778738742
C         7.06714933633277   14.52992975395274   12.97809344717068
C         7.00483348476928   14.93181389231600   11.62509973524909
H         7.91619842610457   15.19150940872390   11.10646072175046
C         5.79916768653668   14.98087033353922   10.96756686369591
H         5.77684019486468   15.27654035236122    9.92879370112238
C         4.57830314616743   14.66738998590751   11.59224910316375
H         3.65697612967389   14.71810726019708   11.03199492388123
C         4.60184466709070   14.29617206171571   12.91395489202389
C         3.60443175060374   13.91116810249128   13.90243108055918
C         4.31779693914929   13.49758334728693   15.11763135166383
C         1.48042203790789   14.16680804987046   12.86361649913259
C         1.36114471540966   15.46489754417961   12.34954933274345
C         0.44314945785708   15.67654651854364   11.32894736101893
H         0.31584914983278   16.67355843899519   10.93692604248639
C        -0.32480305556062   14.64628871357835   10.82258724030187
H        -1.02566576175025   14.83779872423162   10.02428576750757
C        -0.22128760085194   13.37684005461428   11.36324113418746
H        -0.84463729969554   12.57642010267567   10.99372185409346
C         0.66078232846958   13.12465672597137   12.39809575008167
C         0.75468263928439   11.76650221405202   13.02257673527621
H         1.67333062313062   11.25909457326286   12.72221729710357
H        -0.09138447378146   11.14896106958104   12.73358715381057
H         0.75872163801488   11.84864570307264   14.12367430615541
C         2.08940452328976   16.63094865853740   12.96329662327688
H         2.80963255434945   16.25781366437164   13.69305342756008
C         1.09335266418185   17.57829502523253   13.68091219821175
H         0.10327530616379   17.13235969433619   13.76317209004801
H         1.44638082036794   17.78349627060142   14.69217580101846
C         1.08954797222183   18.87053078764671   12.86721795993217
H         0.38582819965820   18.79830117287674   12.03691760985493
H         0.81364081009996   19.73379434403166   13.47078499122859
C         2.51639517096997   18.95524109626693   12.33620192127310
H         3.18665330059560   19.28436213155458   13.13293573201097
H         2.61845356854777   19.64553783541232   11.49951646982615
C         2.83454699972930   17.51351672756925   11.93903606650109
H         3.90736612564244   17.31443247840445   11.94387162100827
H         2.46636048389526   17.31900779085565   10.93112508893755
C         4.25696746897097   12.53131132267511   17.24920926101979
C         4.35365576813174   13.39304412776667   18.34478593913714
C         5.00510829457240   12.94709454985104   19.48097930195950
H         5.09140908215063   13.60623317391357   20.33238143668781
C         5.52466939567156   11.66090893226547   19.55456243160041
C         5.34037100430791   10.79680918635346   18.48398894702397
H         5.68787493346956    9.77676497339093   18.55684319211494
C         4.69005024165254   11.20671348790366   17.33239024523166
C         6.21299931185997   11.19442362705737   20.79992615171859
H         5.47359664798429   10.81930290735865   21.50760622893405
H         6.74931469169980   12.01114886193387   21.27811710474387
H         6.90957505859046   10.38826858409728   20.58215082237254
C         3.72145105546337   14.76705303940562   18.24148737329903
H         2.75294332452721   14.64094264627424   17.71012382872886
C         4.59364603227617   15.66145678282029   17.39724187237019
C         4.05807597379752   16.35850506430261   16.32243627946122
H         2.99460156402338   16.29285221565385   16.12362212392750
C         4.86650575695764   17.13773332986969   15.51322486255547
H         4.43968551219373   17.67629549762278   14.67994909833974
C         6.22241050170217   17.23222858784377   15.77234518508986
H         6.85476716492529   17.83459643196129   15.13695238299228
C         6.76265183405233   16.55634022281416   16.85310068472701
H         7.81849902003200   16.63623114856638   17.06715792840788
C         5.95465294826404   15.77454488856512   17.65845996238054
H         6.37938283429432   15.24298809686836   18.49816319426947
C         3.37820392772970   15.32808762111821   19.60324622189785
C         3.95910705036187   16.47806159715334   20.11589735943627
H         4.69003718808610   17.02403734751492   19.53688172684466
C         3.60064303340037   16.94051469163996   21.37157804703707
H         4.05958723443646   17.83856696274400   21.75953935896926
C         2.66000149287834   16.26075705895992   22.12390547871403
H         2.38268796557651   16.62475635794008   23.10223345371768
C         2.07053878153086   15.11558670813771   21.61298294954300
H         1.32892767454584   14.58315049074207   22.18927064284565
C         2.42495498467101   14.65325142254249   20.36042443342635
H         1.96042824751731   13.76228468108281   19.96296538689911
C         4.39900644380604   10.27533727107620   16.17285602868838
H         3.39176758439972   10.53076275849786   15.80985121383620
C         4.33182143747071    8.83445289569283   16.63262195092753
C         3.32674785098306    8.49213347759869   17.53314964443855
H         2.63286135281898    9.24957658612513   17.86912196848078
C         3.21390273349291    7.19525336464775   17.99594428615039
H         2.43049675030292    6.94398334073848   18.69503786683098
C         4.09886571438902    6.22145461481779   17.56138811128667
H         4.01139605628892    5.20700885178365   17.92174426411117
C         5.09196268529841    6.55393405465481   16.65811604570684
H         5.78177643722435    5.79924886760629   16.30836430733328
C         5.20937398270151    7.85442533548702   16.19459781617384
H         5.98689087505926    8.09670422637304   15.48444061431215

