113
CSD_code = PEGYIM | q = 0 | S = 0 | Stoichiometry = C58H50Br2N2Ni | MND = 4
Br        5.41255360001083   14.10479266290047    3.75588544938092
Br        4.71636603262461   11.44013349085097    2.04049134232183
Ni        6.45010575123335   12.79490125980104    2.28367441893154
N         8.22725469053892   13.28247801362824    2.78747169341131
N         7.29213439646120   12.30264873037383    0.50337574845516
C         8.66526328870653   12.94649403854430    5.14498088448647
C         6.61150941575987   11.97231559458210   -0.66638875626010
C         9.72215810552294   12.12539002754913   -0.22277211001919
C         9.07680694163798   12.81973517763874    1.93609485172999
C        10.52508627692904   12.71417514588855    1.91902119763120
C        10.85731559483761   12.30312834896125    0.60608596930225
C         5.69111510692067   12.90908244712306   -1.17056841252984
C         9.66671900383289   15.62730346734308    0.63942532726054
H         8.64858863130261   15.54238181128388    0.28555207719937
C         9.11562996333428   13.45565672450872    6.35066512403025
H         9.14157530663952   12.81157509117207    7.21743783741425
C         5.44382012054512   14.20749483456928   -0.45553631791752
H         5.93624484527323   14.18721888337447    0.54043469415615
C         8.94952852350315   15.14575720661768    4.14574147159975
C         6.60475554581774   11.53814412999910    6.91592695775052
H         6.12564357707083   12.38735578210598    6.45008149240648
C         8.64927299265410   13.78674178110527    4.02923547873154
C         9.50669621268905   14.78254631509895    6.46947018806071
C         8.16697746013634   11.52368898360211    4.98270527001155
H         7.26653100098720   11.56799046930739    4.33168745083007
C         7.69876843334403   10.94053951683291    6.29652691894308
C        10.71705137743211   15.46728877442684   -0.24656484850147
H        10.51714822830320   15.25120071352825   -1.28657596337070
C         8.46048130438257   17.46657533856163    3.35903932540997
C         8.74589839459476   16.03980852171450    2.93965402103088
H         7.83885052086716   15.68095159314110    2.43022101836212
C         6.74807982422068   10.71294925918711   -1.26846350596717
C         8.57008297850355   12.36476469640045    0.63468753465503
C         9.90056402634787   15.89626127782408    1.98106275424422
C         5.20968185150813   11.40553488722428   -3.00718853848076
C        12.26648577363702   15.85882488927139    1.53440836897835
H        13.28311002566818   15.95432834345085    1.88711300999985
C         9.91273963692382   11.81931136892963   -1.54898460683133
H         9.08500362625051   11.71605189518544   -2.23525105086237
C         9.98018625972604   15.32378974504275    7.78303020708490
H        10.34984120004033   14.52677305521225    8.42348285630040
H         9.15389289530255   15.81541329040000    8.29630918497381
H        10.76805670066019   16.06003898576435    7.63854677430370
C         7.54789068685117    9.62299019071117   -0.62058109789496
H         8.62050973141927    9.76381278075261   -0.75929421629252
H         7.27307268024715    8.66013131537929   -1.04404512786123
H         7.34375735737856    9.59556308092805    0.44845093809304
C         7.28691518951580   17.70734011904444    4.06807499197627
H         6.62188909586899   16.88555909752555    4.29263153352532
C         5.03152745882882   12.61537506843402   -2.35162864893545
H         4.34921385897437   13.33921764311726   -2.77062977214658
C         9.21071622552862   10.70721189440803    4.26342779136461
C         9.39437949818231   15.62012858921011    5.36737696633301
H         9.63569482702961   16.66807386870504    5.46899728686927
C        12.17072737957394   12.13026836408936    0.16361429188500
C        11.53412623356747   12.94093081850766    2.82050066613427
H        11.33361299593736   13.27521150585147    3.82637855775014
C        12.86008253541613   12.73053736293234    2.40131955259991
H        13.65078308111902   12.89539525248463    3.11832538250461
C         6.04503873125355   10.45808184644288   -2.43353910811674
H         6.14369320468880    9.48738313599143   -2.89838419243248
C        12.02139068097996   15.58266003967966    0.19994763026918
H        12.84330897726970   15.45814727899753   -0.48940332659559
C        10.52914831614082   10.69466916308623    4.70469924576253
H        10.79490867598879   11.24250533527526    5.59769933820893
C        11.21484656486216   16.00864119299983    2.41993497837197
H        11.41077970537556   16.21363650325625    3.46254530638675
C         9.30177138163830   18.52869547710326    3.06418427514848
H        10.21005080487073   18.36486762068038    2.50233900508430
C         7.81943797314564   20.04271971985388    4.19482050311225
H         7.57380735307796   21.04300197279082    4.52000172531551
C         6.97089388106615   18.98632388331390    4.48462217613721
H         6.05787908514986   19.15813176949171    5.03452357623318
C         4.46389071467740   11.10845953744106   -4.27058586682616
H         3.46121884795937   10.75342898786200   -4.03108501730859
H         4.96661765624101   10.33681862828231   -4.84871712842496
H         4.36462985150019   12.00281658878246   -4.88197380046379
C         8.88142611550290    9.99222372079638    3.11971075465132
H         7.85211765652350    9.97747262252966    2.78058762404733
C        13.18407440550222   12.34233421794222    1.12524814476870
H        14.21798206706050   12.20619406204210    0.84345692266152
C         8.29812834440795    9.84257742982014    6.89450977205428
H         9.13822832340840    9.35521333965747    6.42094976066186
C         6.73757737908960    9.96046499044488    8.71616304187544
H         6.36611761928286    9.57814889962972    9.65550860017447
C        12.32810210478816   11.78323458340803   -1.19662439107463
H        13.32100621619529   11.63422979825234   -1.59516866558436
C        11.23038157578941   11.65320458864425   -2.01282939167625
H        11.37436383859754   11.40835986981309   -3.05511921364729
C         7.81844860973340    9.35653880465908    8.09985012066338
H         8.29322159942341    8.49944192714028    8.55544970346899
C        11.16122783078285    9.29987515884200    2.85778095160771
H        11.91902919874207    8.76192985453525    2.30756658569223
C         6.12949337385482   11.05270464859574    8.11859804573348
H         5.27948014608798   11.52507143989303    8.58761866655960
C         8.98134509215159   19.81046068284813    3.48147666569756
H         9.64558312630125   20.62944735765205    3.24528830850458
C         9.84935207941416    9.29572098029757    2.41770124949866
H         9.58015783731318    8.74577866945160    1.52763583142269
C        11.49638990937776    9.99247181006429    4.00882046706656
H        12.51700061055812    9.98939595915756    4.36284655571814
C         3.97369073609732   14.55866469977982   -0.20749505197150
H         3.40073062295544   14.47480771370779   -1.13081239731399
H         3.51623294996349   13.91085513670149    0.53833391305527
C         5.94652613471103   15.45055716027181   -1.19649930356602
H         7.03467377042454   15.52746327522641   -1.20427888467871
H         5.61166838517463   15.40624263980250   -2.23450136931723
C         5.27498688623990   16.61846856454908   -0.46180285607487
H         4.99106082947215   17.40466819346942   -1.16010149436667
H         5.95844938370739   17.05840504796032    0.26560233733106
C         4.04686162195185   16.01703377002992    0.25227236909863
H         4.18465636147491   16.05420883582812    1.33319023810341
H         3.13204057392169   16.55745734312558    0.01598518471397

