121
CSD_code = PEHDEM | q = 0 | S = 0 | Stoichiometry = C42H72N2O4Zr | MND = 6
Zr        4.13987957937927    5.63363286510297    8.61802456513562
O         2.59665526130081    5.89014716592384    7.39749584152713
O         5.70436379699188    5.10136154510134    9.70505261796374
N         5.20710133599386    5.27711600603547    6.44801984371120
N         4.29077635810292    3.23714218513137    8.03907881448198
O         2.85944470379749    5.25482398985090   10.00489415071509
O         4.89493686158251    7.40560077782359    8.37897529326747
C         2.23946244611872    5.87690034943902    6.13606909131471
C         0.89234307103222    5.72278312361879    5.70637879694670
C         0.63273739742728    5.63726585494086    4.34732013930277
H        -0.38577134762480    5.50420728448484    4.03354775024425
C         1.61291850069895    5.72103401256645    3.36557621119215
C         2.91464987044324    5.94124145811567    3.79242949870063
H         3.71267464968130    6.05949058675250    3.07189131775109
C         3.22958668399885    6.02582395217992    5.13566315588676
C         4.64269095234196    6.31750274394860    5.56431734978535
H         5.27498781041758    6.42521936045051    4.66583539887860
H         4.66676381690961    7.25579026985905    6.13482925777361
C         6.61773792489696    5.58106045754162    6.67603072463719
H         7.18601445735967    5.54947329889611    5.73094821527561
H         7.05929070870544    4.86823802220482    7.37392555013584
H         6.69279215133245    6.58102874006376    7.10337729661989
C         5.06309573006314    3.95765919278126    5.83141003594275
H         5.83945109990097    3.78546124566066    5.06644068626236
H         4.08888492925820    3.91614758538100    5.33338469484141
C         5.14430509800315    2.87518878150920    6.90563555111042
H         4.85204829261807    1.90003296153758    6.48090885851735
H         6.17438475475762    2.78802306586474    7.26623364286240
C         2.90581924663294    2.85615824138190    7.77611799982835
H         2.53474787919275    3.35603123994779    6.88133028187791
H         2.29047105143446    3.15953730197660    8.62315004497576
H         2.81558035793657    1.76527043692368    7.63572748747739
C         4.74604951045365    2.54150252449594    9.25622936048194
H         4.12399654534427    2.91004567988367   10.08115184710820
H         4.58735221466578    1.45351144033881    9.14995786783554
C         6.19430055771251    2.80352136600375    9.56929626999548
C         7.10018465015326    1.75559588938504    9.62403867723026
H         6.73718302980272    0.76207926419738    9.40809802857108
C         8.42607387865977    1.97280081683694    9.95487848186381
C         8.79261720364834    3.27811903176976   10.28034857041956
H         9.81302987495948    3.44964070636553   10.57696819655998
C         7.92526653267873    4.35376583917670   10.25402047607925
C         6.58370727702499    4.13521484874368    9.83174127927866
C        -0.25382508879740    5.75203480523785    6.71620612018434
C        -0.29377385851711    7.16143520006944    7.32302979694825
H         0.63809753541256    7.35931671865325    7.84240208683152
H        -1.11644415712950    7.24794445817734    8.03081663151111
H        -0.42731358100637    7.90754281241098    6.54185063751039
C        -0.03715739257580    4.73517331022257    7.84400124004665
H         0.01433596811324    3.72537815309516    7.43938091702188
H        -0.87183736057135    4.78084196472290    8.54283436537638
H         0.88319063363239    4.96383619528860    8.37929988848239
C        -1.62177292232767    5.46191350972143    6.08655958707457
H        -1.89689716318797    6.22392667865251    5.36138870463388
H        -2.37989026869330    5.46141781754500    6.86783371132612
H        -1.63576924100989    4.48636957998474    5.60501422601902
C         1.31471307686104    5.60954088460136    1.87752977539150
C        -0.16482166830696    5.34519069417423    1.58530801969039
H        -0.78568733438008    6.16343660608365    1.94184336219324
H        -0.49538811023057    4.41849986642815    2.04862163050447
H        -0.31243785972103    5.25603068855230    0.51049280703029
C         1.70941460993933    6.92148301445108    1.18478841485088
H         1.48948729835402    6.86854336938246    0.12013315718136
H         2.76950431543834    7.12684334596018    1.30453021107349
H         1.15242943093513    7.75200776464705    1.61293085265217
C         2.12853567631110    4.44894844530501    1.28655939657729
H         1.92410053980133    4.34730959584640    0.22245842401971
H         1.86317328345497    3.51597207829197    1.77982317923509
H         3.19541323544355    4.61040675967447    1.41372103320703
C         9.46942312426300    0.86686174710526   10.00371296134365
C        10.60481848833695    1.19952133921144    9.02510424728958
H        10.21640127401269    1.27800317843119    8.01157453535264
H        11.36166192150376    0.41778339393558    9.04543035607346
H        11.08148510084767    2.14168947965929    9.28013364015552
C         8.89500919541459   -0.49892723973318    9.61677559050369
H         8.10997452951601   -0.80099360346273   10.30592613716906
H         9.68263619520111   -1.24907034953943    9.65512727473078
H         8.49499986910629   -0.48254513512958    8.60539511841694
C        10.03055825117260    0.76003008119628   11.42854641174403
H        10.51745362938028    1.68271864485821   11.73082089145736
H        10.75991877101027   -0.04557957957041   11.48784952521684
H         9.22728170578737    0.55302893454866   12.13236665723468
C         8.35405835744407    5.73442672465520   10.73936914124495
C         7.49712995238315    6.07407914207284   11.96717388609619
H         6.44571677907799    6.05159080908692   11.69744575551113
H         7.74605601067379    7.06445411038748   12.34421928934665
H         7.67113332827614    5.34782645517438   12.75927730604337
C         8.13035252173000    6.78768536659945    9.64626423525210
H         8.73115536475894    6.54985441949235    8.76949384897642
H         8.43517037101194    7.76778667925130   10.01116953923415
H         7.07891649604721    6.82727899459162    9.36363562634607
C         9.82801158167748    5.79764908816253   11.15583734921401
H        10.03808067085495    5.11618625960412   11.97701709887137
H        10.05910682983130    6.80620459404765   11.49396002294797
H        10.48537360456177    5.56651735438051   10.32021510998601
C         4.39386904915023    8.46470725184985    9.12761607003242
C         5.04863200632189    9.78062320961550    8.66321846901495
H         6.12985816786179    9.69957551834202    8.75089483496453
H         4.70270811512830   10.61620252078436    9.26636568867127
H         4.80107231314133    9.96797988035638    7.62048995166229
C         2.86379754088361    8.54629356079272    8.94419560149384
H         2.63572695791679    8.70962195573104    7.88974951412037
H         2.43467822334867    9.35920985492176    9.52904597642141
H         2.43988067891092    7.58453470935226    9.25793369361423
C         4.69561240700716    8.22480670781126   10.62179489224956
H         4.40101452407142    7.19234148232518   10.83935967821943
H         4.14896076701769    8.92271866619758   11.25499332302221
H         5.76109886698170    8.33883568798106   10.81110893937481
C         2.39806783984475    5.07933038339853   11.30351218886934
C         3.56424902555250    4.97080752269108   12.31628539333225
H         4.38020842843784    4.39740687762912   11.87582686387057
H         3.23368737080189    4.47453515599348   13.22665863878473
H         3.94063442318422    5.95612692962140   12.58325678020584
C         1.48222946771814    6.25737490400801   11.70562828250755
H         2.03741999383490    7.19227989149912   11.67074235258860
H         1.09473060486571    6.11355495653905   12.71169067594056
H         0.64911584907422    6.32208008426893   11.00836333936717
C         1.55930105703576    3.77889113794289   11.38399031025516
H         0.78171987991504    3.79872657626122   10.62345382870455
H         1.09106958849388    3.68795628600864   12.36115471575267
H         2.18930662657709    2.90628157166207   11.21992104424543

