81
CSD_code = PEHFAK | q = 1 | S = 0 | Stoichiometry = C33H36BN6O2S2W(1+) | MND = 7
B         7.53285268762412    0.80844361242622    1.67625482719978
H         7.53535386306562    0.56791023289614    0.52756674319863
C         8.65263526015955    1.59858665112407    6.70125113219407
C         9.46793340617755    1.77067481643280    5.65321169188581
C        11.33467239842149    1.92398229077693    3.61699677408186
H        10.46074432233839    1.41153456726972    3.21892470395653
H        11.33178270331658    2.97344225204644    3.32440629776919
C        12.60210024652908    1.24132198362258    3.22452770272385
C        12.61220439600928   -0.12671385187741    2.97815225828659
H        11.69466308026387   -0.69303933052691    3.05794127164917
C        13.78881174363364   -0.76338345040507    2.62747908965039
H        13.78676177280099   -1.82514673039804    2.43320108546603
C        14.96616889568211   -0.04109246892700    2.52730133618624
H        15.88375584467283   -0.53864672610475    2.25420810572138
C        14.96412652453324    1.32060906914190    2.77967369313122
H        15.87972403108458    1.88666788074575    2.70486549503859
C        13.78825175001434    1.95944509182909    3.12943680535207
H        13.78834676443369    3.02150125055245    3.32799224077997
C        10.39697139164883    2.13941147339907    8.79888295208375
H        11.04582542031132    1.65408144368166    8.07228491785132
H        10.41643472844651    3.21994984908372    8.66695692700369
C        10.72303423539168    1.73717344740995   10.19714778131701
C        11.25535148141815    0.47887010957211   10.45553156646715
H        11.44339743959587   -0.20069338039552    9.63642577523587
C        11.55065623274109    0.09915745945588   11.75183282469888
H        11.96894032767280   -0.87727355162823   11.94301078691465
C        11.30998712795698    0.96989369920386   12.80178109057057
H        11.54096643218918    0.67314945977758   13.81317720050446
C        10.77183520006515    2.22124776718729   12.55208634346255
H        10.58185136768678    2.90149031239748   13.36802410979902
C        10.47556862966800    2.60290468585380   11.25606360531767
H        10.05428869769897    3.57868977593300   11.06267697437907
C         8.65326731026934    3.09485795030000    1.11365551769871
C         8.97394932067654    4.22172530209581    1.85353485530211
H         9.39361442649308    5.13530512364411    1.48678269159394
C         8.62663897645709    3.92346214668822    3.17016605337134
C         8.74755290382917    4.80777596098390    4.36133710937560
H         9.13445142674353    4.26742182009986    5.22839897069629
H         7.77389234013355    5.22512698327269    4.62258264503233
H         9.41524646022322    5.63528969717101    4.13424308118072
C         8.81836674257842    2.87133058406871   -0.34262483877974
H         9.29462122533707    3.73817647495287   -0.79095498509475
H         7.85326438563358    2.71688602893165   -0.82126655984488
H         9.43359033536642    1.99394644932817   -0.53206152205556
C         4.93813240943516    0.62998835967797    1.61443164192791
C         3.91725288041354    0.82596477492088    2.53395752983178
H         2.86596706053117    0.73392374649393    2.35712259058213
C         4.53917023381617    1.16726492445612    3.72965476064974
C         3.87521031606048    1.47796603245848    5.02235776498778
H         3.93610326069071    0.62963306107118    5.70373007264955
H         2.82354235335413    1.68778477839224    4.84391895683091
H         4.32875782551789    2.34274405384404    5.50438999738537
C         4.82122801236619    0.24673493695977    0.18749841402513
H         3.77385400967198    0.11618473815050   -0.06767008991432
H         5.34894091540110   -0.68495993389810   -0.00601337072749
H         5.24583349895888    1.01528363274046   -0.45529127669943
C         8.95902446054412   -1.34583168574177    2.04609736600306
C         9.41953382136887   -2.01782577280634    3.16701288011438
H         9.97871527220778   -2.93028052198991    3.18782214303220
C         8.99476325118618   -1.26678233462166    4.26278685080743
C         9.23490340576480   -1.54219438733724    5.70484145850668
H         8.31555862392660   -1.43370573057110    6.28309813007290
H         9.98234119318156   -0.85959249900240    6.11408844320927
H         9.60446246147773   -2.55763109013672    5.82201954883715
C         9.13672204865148   -1.70489602206176    0.61859175646897
H         9.71771501669322   -2.61938276711966    0.54429876149550
H         9.65760795491495   -0.91328866933662    0.08297255582950
H         8.17382564209480   -1.86183722672279    0.13678155719524
C         6.56039079382602    0.40743015567216    6.29056328140137
C         6.66307118904150    3.01564730106592    5.88438520838566
N         8.13778282030811    2.67951379584873    3.22103858147201
N         8.15130574616973    2.18337232303872    1.96609280320447
N         5.87103216280492    1.17692464839846    3.54309160446971
N         6.10080593594867    0.85013026261550    2.24688105254104
N         8.32183577870464   -0.19701954906054    3.82301644711123
N         8.30317370679224   -0.25121646578287    2.47446863868733
O         6.07208038703749   -0.06998379921103    7.21112011989580
O         6.29782275787532    3.78694351245225    6.65317160709909
S        11.15501322874310    1.88564925431965    5.46140877004005
S         8.66144250032560    1.59551451068992    8.40138849225706
W         7.51282280719431    1.48807543904567    4.90760782198474

