40
CSD_code = PEHHOC | q = 0 | S = 0 | Stoichiometry = C12H17CoN8O2 | MND = 6
Co        7.22781054137357    6.42277572403559    7.67377407720526
O         8.17032362192213    7.95991367883894    7.34071125618455
O         6.51148933715902    7.41725084246908    9.46934294186206
H         7.32987192442656    7.37014262792355    9.98595603570316
N         7.87254725911691    5.49774525873225    6.19949917323114
N         5.93677115854893    4.96493173505162    8.38880000747527
H         5.08049983161155    5.27670850884256    7.92381093951664
N         5.74902504484338    7.04202207925459    6.69963291080481
N         5.66176059364126    7.80600968309288    5.81569617137263
N         5.43811413932480    8.50827528795206    4.95354003304084
N         8.58402875641840    5.73998428381657    8.79188005753431
N         9.72850499784353    5.57625293163188    8.59935724743653
N        10.83708762218365    5.34468328146807    8.52991676642991
C         8.66391999452702    8.33503615214294    6.21908030883046
C         9.10293054550158    9.67323535843686    6.06579569672714
H         8.98644267215499   10.33285468036840    6.91152549075402
C         9.63629947963947   10.11045074744003    4.88516568908009
H         9.95032088415275   11.13983341695712    4.79134015168818
C         9.77811259534629    9.24573853500797    3.79239579318633
H        10.19823689875805    9.61079478556504    2.86831547754385
C         9.38149358737026    7.94244521512939    3.90976555314144
H         9.48728115031854    7.26206653486963    3.07663051216677
C         8.82086203845604    7.45497074023435    5.10685163979122
C         8.46964664177972    6.08930143368081    5.21169066914049
H         8.76925740891068    5.47192432566383    4.36363558974062
C         7.79736818279015    4.04848904299708    6.14881994765598
H         8.55323004810003    3.64517679999253    6.83409135252400
H         8.05149899033047    3.71259240917080    5.13665942450006
C         6.43279765546800    3.47021479011041    6.52498561477820
H         5.65176557219119    3.99202659829020    5.96843741914647
H         6.41913759043537    2.41935686700570    6.23216903012049
C         6.15790187956357    3.57252074567626    8.01969646416388
H         5.28427074701012    2.95880991834948    8.28508656099648
H         7.02083327630696    3.19968492942626    8.57879710967426
C         5.75204955326825    5.14837618333302    9.82848420291020
H         6.66866139670707    4.82830464523421   10.33259817792728
H         4.90932498788810    4.55331022776737   10.20657891334179
C         5.51091577032010    6.63588885008982   10.08748651071237
H         4.56869989078713    6.94701352627970    9.62533784725973
H         5.46600573350383    6.84208661767456   11.16266123470111

