25
CSD_code = PEHJEU | q = 0 | S = 0 | Stoichiometry = C11H6BrN2O4Re | MND = 6
Re        7.25009472651687    4.39944468856139   27.00821747272043
Br        8.74452843879673    4.02656069604017   29.17691594989076
C         7.36544844425624    6.54382013922845   27.44756630240316
C         6.15525807254315    4.66547669732119   25.41927835353159
C         7.30272058764748    2.43173017120913   26.84052467415235
O         5.50988440815351    4.82671181504556   24.48425517891236
O         7.39021392253234    1.29766016621139   26.82947257138391
O         4.96113773043702    4.23677201710596   29.10209746016415
C         7.13751901532140    8.77867600053166   27.38230208849115
N         6.83016947667401    7.58351028369387   26.77130750178241
H         6.27969089478435    7.48982362637970   25.93145604068350
O        10.04172446047293    4.66458181156896   25.67157172702990
C         7.91183087301855    8.44341051229228   28.50565640642273
N         8.01739176527543    7.07470060551143   28.49433502618508
H         8.51747758263499    6.50443174816879   29.17308408258928
C         5.73591956570582    4.29241344405455   28.27163761676336
C         6.83024031598326   10.09710190387093   27.08377833117305
H         6.23605235833872   10.35521087937328   26.22161276918478
C         8.98446582804777    4.56663062473224   26.07858258812166
C         7.32124742741604   11.06106863245525   27.94272235748080
H         7.10561939130161   12.10000790302314   27.74747619522105
C         8.09044596860084   10.72797964982264   29.05905411198898
H         8.45048978323947   11.51801165976056   29.69944190673884
C         8.40101085998907    9.41718118904879   29.36317525243934
H         8.99481810231236    9.15718313498682   30.22447803454545

