66
CSD_code = PEHKIZ | q = 1 | S = 0 | Stoichiometry = C32H26N4O3Re(1+) | MND = 6
Re        2.96006248414037   19.54001335058474    0.92519264441752
O         5.89743784933568   19.49780886990580   -0.05479433456636
N         3.37232295494731   16.97840907117300   -0.80424050677394
H         4.30363650096763   16.92150475726542   -0.42161256927606
O         2.20993054553402   21.82059465411591   -1.03165079119855
O         3.67653672659074   21.53987864172765    3.19005876424071
N         1.40310300088243   17.72066938711862   -1.27970834132837
N         3.16279328619430   17.89211603177997    2.33819003614010
N         0.98521775830921   19.38394563734539    1.83772747490790
C         4.80383866375346   19.53535227097032    0.28056726785661
C         2.51550829885869   20.97584757355902   -0.32166320309151
C         3.41260282345203   20.82580020580536    2.34688200000743
C         2.48658892414417   17.96116687128090   -0.51856956393847
C         2.87934086506146   16.12224093207524   -1.76117655497852
C         3.40394886518380   14.99846445115412   -2.38106795311844
H         4.39022896308979   14.63310094356654   -2.14438241604622
C         2.60497414403478   14.37627307765210   -3.31965072192577
H         2.97330804663529   13.50104993162404   -3.83053192447610
C         1.32848143926493   14.85198884773736   -3.62603028147240
H         0.74066406263352   14.33115217159810   -4.36507839683309
C         0.79968117975992   15.96839042981273   -3.00904112110728
H        -0.19188332559145   16.32048375625185   -3.24438217259930
C         1.59947653499595   16.60448904442969   -2.06893330323009
C         0.22927039127320   18.54641582397995   -1.36872007211218
H        -0.07694845067202   18.55490297223950   -2.42103592243334
H         0.53762940711094   19.56721534271895   -1.11586201423519
C        -0.98325067605208   18.19155524751119   -0.52649574673332
C        -2.06126712020439   19.08492380613172   -0.65526802345240
C        -1.99250753468737   20.26601506042989   -1.57613446938836
H        -2.91419543999815   20.83817025555560   -1.52064043738999
H        -1.85821594600400   19.94831562353392   -2.60952136921823
H        -1.16554955492854   20.92985348694448   -1.32640020798531
C        -3.22532530153332   18.87476873223871    0.06409680307626
H        -4.04935316756407   19.56305683732133   -0.05252210775081
C        -3.36141131469019   17.79534766188975    0.92439890574380
C        -4.63082510065085   17.57988693613242    1.68519822644212
H        -4.98090715258011   18.51126471398130    2.12579185568321
H        -4.49859308252320   16.84048436408184    2.47075791734195
H        -5.40952550218624   17.22311469380206    1.01207597408171
C        -2.29312603400374   16.92390528804380    1.03758147461825
H        -2.38327514122038   16.06894020857298    1.69278702913474
C        -1.10883739914770   17.09119195209159    0.32440248599980
C        -0.05841719169436   16.03187030736635    0.51913796944931
H        -0.36898117181847   15.34980804027226    1.30796822518000
H         0.90599254078902   16.44610003317635    0.80471216452845
H         0.07601537964407   15.44599971279598   -0.38912371660407
C         4.24741661173664   17.18115168913512    2.59830287752905
H         5.15623738486678   17.47236363903749    2.08683755044718
C         4.26361394632718   16.11230586211439    3.49455895253428
H         5.18345495464435   15.57563500755580    3.66047658764804
C         3.10795485915249   15.76717153033264    4.15478594231841
H         3.08619121042605   14.94705852747503    4.85570012064932
C         1.94194372694051   16.51197084472306    3.91627603033808
C         0.70421076633245   16.25270097782899    4.57198826623996
H         0.66231986864204   15.42677788785038    5.26529593117229
C        -0.38211195814268   17.03062150526410    4.34828104614378
H        -1.31230112720105   16.84256011871264    4.86197409263941
C        -0.33080397870342   18.12672058529428    3.44039971575351
C        -1.41667007594501   18.98786212353522    3.21590217679276
H        -2.34367722364806   18.82964280819942    3.74394590435672
C        -1.26023112572322   20.03573763204540    2.34102975682537
H        -2.05705596176064   20.73745142942884    2.16010003676089
C        -0.05083784570236   20.18733731465994    1.66437893811504
H         0.07835286390791   21.00667360640153    0.96972162626552
C         0.86423233507982   18.38120228865183    2.73703615978008
C         2.02076473994440   17.57470661242364    2.99081931211718

