37
CSD_code = PEHKAO | q = 0 | S = 0 | Stoichiometry = C14H16CrO5S | MND = 9
Cr        3.28662347532685    9.38294885189863    0.42877806474776
O         2.01083323391510   11.87057511282615   -2.34412716504585
S         2.53066353145565   10.60890043711850   -2.87791078582055
C         2.18967707630144    9.41747414742188   -1.55465509592965
C         2.95097109531701    8.22796380008764   -1.49511950031940
O         3.79646459380788    8.01879992126091   -2.53842341876006
C         2.74357734073984    7.33651444910765   -0.43062579773897
C         1.81112843877947    7.66358660848316    0.57559725673539
C         1.06728571487764    8.84464448325151    0.52162557966719
C         1.30424724771685    9.74718544987796   -0.53006418027281
C         1.20222430580380   10.03820343314820   -4.09978788764111
C         1.48298654681019    8.60144196187266   -4.49321882560506
C        -0.16198568913753   10.23095421278269   -3.46887917887025
C         1.40345222310273   10.98778407142963   -5.27227257643023
C         4.83061574463279    7.06819855607879   -2.38029138543892
C         4.14507188857989    8.93058690023089    1.97162427173150
O         4.73619893352853    8.69786869863971    2.93656066077297
C         4.97192780643422    9.83044967967508   -0.09385748952352
O         6.04780028826628   10.13917338329551   -0.37784167802980
C         3.38252038529084   11.05154684571198    1.16320523263651
O         3.52427458213933   12.08507823808920    1.64869373310869
H         3.24932558739696    6.38106547071201   -0.39926375288804
H         1.61539111929226    6.93808531984270    1.35674585889176
H         0.30684382546829    9.05193554823646    1.26305660041102
H         0.74655052843727   10.67271106669020   -0.61282788128385
H         0.85712270307612    8.31564570902167   -5.33807820560192
H         2.52546017813141    8.48287271614071   -4.77952169530152
H         1.27092599939688    7.91752239632052   -3.67332195616345
H        -0.94423433337523   10.17575808297354   -4.22442652571720
H        -0.36368727673806    9.47174781665504   -2.71429896021056
H        -0.20461455576302   11.21509138547054   -3.00367858110216
H         0.65960709031032   10.81093835457551   -6.04790046102972
H         1.31117950132740   12.01670637432454   -4.93096706355343
H         2.39344214138961   10.85547020323881   -5.70435577970121
H         5.48881371631511    7.20874096820349   -3.23526683518181
H         5.38801713563202    7.24783698313040   -1.45588586527395
H         4.44209787601308    6.04499236217574   -2.39061873026742

