45
CSD_code = PEHNUN | q = 0 | S = 0 | Stoichiometry = C18H21N3O2Pd | MND = 4
Pd        1.01679992135697   10.73542452611267   20.39906240262181
O        -0.77901996839836    9.91858131552537   19.91222087802942
O         3.97423170088745   13.32993826181746   19.94125721098012
N         0.49340941173767   12.46539797516502   19.52455431307608
H        -0.41921784147691   12.88336491113330   19.72442449271453
N         2.74953706356234   11.55169254044558   20.69338122733374
N         1.92064003468052    9.14178570119570   21.12341626874426
C        -1.29415253629437   10.23332177078086   18.75039754291767
C        -2.46319927672008    9.54446393035845   18.36008150632633
H        -2.83941729203638    8.79741368873052   19.04378895775579
C        -3.10693817159289    9.79989593155832   17.17374557865997
H        -3.99978365074635    9.24676729596110   16.91886983976876
C        -2.61447989870661   10.76413944424726   16.30726626534767
H        -3.11284873731322   10.97516163929832   15.37373658599856
C        -1.47276600337364   11.45549693315859   16.66039336943937
H        -1.08274628829417   12.20872381807633   15.98765597043829
C        -0.79901538618631   11.21710368531947   17.85124398355882
C         0.45792165414343   12.02285628542283   18.12211222552459
H         1.36992796929277   11.42455947016479   17.90953447430250
H         0.47064845341991   12.89384721215797   17.44839719711115
C         1.54360314764915   13.43926460531483   19.88587593578104
H         1.68753182713532   14.16564473972843   19.07079803756847
C         2.91707622864119   12.75005302642208   20.15589992016291
C         3.82938272978498   10.65716502604167   21.02807539585490
H         4.38379916592010   11.02074040433030   21.90754119809068
H         4.55917805332301   10.58343318471205   20.20548770859501
C         3.24307459442119    9.30055240858724   21.32221988124129
C         4.02186647647534    8.24496724756606   21.78401285673591
H         5.07933654622556    8.39473142854033   21.93782132739440
C         3.43333655197559    7.01833786156073   22.03708095864161
H         4.02650636464831    6.19037739868094   22.39417877286192
C         2.06961924345359    6.87278789624826   21.82200004374204
H         1.57385027138471    5.93321458991578   22.00442662742712
C         1.35074082091776    7.96184324785338   21.36390460845918
H         0.28403663600133    7.90910143787291   21.17266865947973
C         1.12604413049482   14.21258653457412   21.15709085960347
H         1.98317476061572   14.83900738996115   21.42695664704824
C         0.81823039571139   13.27987452812209   22.33400715244446
H         0.03841847352712   12.54131299483776   22.08265703661628
H         0.46233758720782   13.86773351358991   23.17774955481119
H         1.71758564709079   12.74902688673752   22.64734882897258
C        -0.06559769741145   15.13367421080044   20.88230282303264
H         0.11819743429253   15.75740521022946   20.01021842999543
H        -0.23046584246655   15.78785108844472   21.73497010854836
H        -0.98359470496083   14.56977680269370   20.72086633624595

