35
CSD_code = PEHRIF | q = 0 | S = 0 | Stoichiometry = C14H17NPtS2 | MND = 4
Pt        3.35429299445845    1.44699018728084    0.58711494105392
S         3.37584517307661    0.14166069267091    3.77603411743319
S         2.80831905899748    2.27690590091024   -1.61385518595797
N         5.19303397572620    2.66285502257038    0.66723949470811
C         3.93179959469248    1.08465504307969    2.44988345367568
C         4.65442870452917    0.70100645969035    4.81123088244910
H         4.70587689292748    0.34034191754480    5.81893454152577
C         5.47445795506784    1.56902195937098    4.18104819614350
H         6.33072707289934    2.03562472478595    4.63600593936388
C         5.07103438260448    1.79756446725905    2.83376262454840
C         5.68887109046950    2.62631025994482    1.85923156162119
H         6.58795189686662    3.18949343793500    2.11535518955883
C         5.73523097218652    3.48313581076572   -0.31362461657059
C         6.04252504358626    4.82186566354908   -0.06288855009698
H         5.87312617112258    5.23022607337703    0.92411269099059
C         6.52501281588756    5.62449173913964   -1.07920112555849
H         6.75120176750112    6.66171639971390   -0.87799784469013
C         6.71714596995305    5.10610783242205   -2.34912019241522
H         7.09486119686634    5.73738793480227   -3.13937190446198
C         6.42019762692964    3.77573587899639   -2.60193177857579
H         6.57287040257092    3.36639769859078   -3.58964787597693
C         5.92689680853465    2.96870129951768   -1.59695402076381
H         5.69862091890122    1.92872093896240   -1.78147656086881
C         1.18921611137750    1.72182095974361   -2.22745953132907
H         0.89417982360692    2.37650598824823   -3.04366771124614
H         0.45146535859643    1.74207039311611   -1.43214714680796
H         1.31052449970117    0.70812805608041   -2.59475291492144
C         2.29757843432628    3.89408960592284   -0.95142471613471
H         1.76026921195909    4.43357710744194   -1.72761234337149
H         3.20128246987847    4.43798135231722   -0.68995629277875
H         1.66868232462899    3.76184808218588   -0.07115796661294
C         1.71028209781083    0.26236487444737    0.73176492482029
H         1.69229793650680   -0.39300129659348    1.60350080274298
H         1.63749798910497   -0.37127071639374   -0.15900744012602
H         0.80829525615559    0.88526825060462    0.78053635862994

