91
CSD_code = PEHSEB | q = 0 | S = 0 | Stoichiometry = C49H33IrN4O2S2 | MND = 6
Ir        2.51219098065142    2.83559201570412    2.02429554385867
S        -0.55101160552251    3.37857226673879   -1.11161874876622
S         1.56228055847249    0.21775111267538    5.48873583014127
N         1.58499560651436    4.68691845867791    1.98319265104188
N         3.41658062307941    0.94921928472367    2.02674427649708
N         5.14270834458616    6.97224985052170    0.54099266020086
N         4.32690091559972    6.06110641391456   -0.04786987705607
O         3.55951151365807    3.91141620878052    0.37550642047023
O         4.33525519025449    3.35100741896531    3.18785432812929
C        -0.27553254858671    1.68546255339219   -1.02540683934332
H        -0.77403031093554    1.04470777126599   -1.72733112302114
C         0.58118976288314    1.32950400342036   -0.02735076964416
H         0.86348523257315    0.30847927136288    0.16173280692359
C         1.04885557128493    2.43217149000436    0.72217658794901
C         0.51379282104044    3.61491665365748    0.23913642683640
C         0.86450986182804    4.84605862586830    0.86292361715436
C         0.55034373698208    6.12301784423296    0.34774401155783
H        -0.02018304069357    6.18366785183656   -0.56562971488614
C         1.03744751624658    7.23078479631523    0.97118871997260
H         0.88061136233248    8.21762404935513    0.56177499499172
C         1.74962987994831    7.09112149340964    2.18539612809021
C         1.95841275511068    5.77957049660765    2.69329177620614
C         2.54565083948754    5.63143827053527    3.96515855175380
H         2.64000129738028    4.63705644681679    4.37376272858290
C         2.97535700193868    6.72846434003082    4.66208828985629
H         3.40947966183604    6.60643312804289    5.64389591491532
C         2.85302629023581    8.01545873265750    4.12045550498191
H         3.23050959547059    8.86374352535094    4.67080652938901
C         2.24019198195050    8.19199400272243    2.90980371297985
H         2.10974930408010    9.18032020436640    2.49433830780728
C         0.50139451592107    1.56310066204890    5.60169344230121
H        -0.16561865327994    1.62531125484534    6.44011407602213
C         0.63005952556277    2.43734035347976    4.56502623243718
H         0.03658131754922    3.33102416932408    4.48103439404659
C         1.60933394853169    2.04425698475527    3.62352942913985
C         2.20237233635034    0.85370685059391    4.00198377261755
C         3.17952300341735    0.26030878169457    3.15456450124605
C         3.81987308339674   -0.96454351980564    3.44563973631660
H         3.59558974711782   -1.44871666865560    4.38357116519747
C         4.68662519246586   -1.49666634514738    2.54322218444746
H         5.19161426414602   -2.43291981728938    2.73248828044658
C         4.91996052520125   -0.81867657877143    1.32541445232867
C         4.26363642539665    0.42485656605164    1.10353176391695
C         4.49213292788191    1.08588703029964   -0.11828455951465
H         3.99392287169548    2.02243232930062   -0.29767249159245
C         5.33118965603591    0.55412619098388   -1.05973868154074
H         5.49454555007474    1.07933512786028   -1.98901832587493
C         5.97599781097887   -0.66899180155530   -0.83845850513635
H         6.62979907429558   -1.07536640465674   -1.59556972540689
C         5.76909847759852   -1.34181337913788    0.33424317243007
H         6.25342756324337   -2.28954225001600    0.52153152746268
C         5.22361792267370    4.15612202042941    2.86040142153684
C         6.59300699985972    3.97762661181361    3.49528318479952
H         6.48154373642181    3.71724049158519    4.54843666235362
H         7.20220217207591    4.87235196921807    3.38539537293634
C         7.19309251160323    2.82589506244996    2.73135586374929
C         7.13276061663190    1.53223736870811    3.23107194103678
H         6.67470795937339    1.35086074635874    4.19298665976151
C         7.65982253629189    0.47782766685854    2.50734916834543
H         7.62359493596482   -0.52209114472768    2.91451708889409
C         8.23326218083159    0.70244917263464    1.26810467822663
H         8.64705553894713   -0.12044072968174    0.70475662029770
C         8.27108508594358    1.98626437149116    0.75134810005674
H         8.70751514211814    2.16582326139735   -0.22022685241413
C         7.75398598979842    3.04233884808502    1.47864917102920
H         7.78641349266118    4.04550540544227    1.07661944769293
C         5.05745176413224    5.13458515474386    1.84926164321267
C         4.21702373913078    4.92494483334400    0.71869320924350
C         5.60381279985647    6.43822767118291    1.64616690363852
C         6.45213897198328    7.22931568337668    2.52810004071657
C         6.32807424666592    7.14841163776407    3.91334869053945
H         5.59093243420782    6.48584514754774    4.34238204680915
C         7.12269517594047    7.92915401527083    4.73148277112833
H         7.01704142596673    7.86092235856577    5.80475819793591
C         8.04917733860004    8.79903032844747    4.18055557445616
H         8.67154891916368    9.40478201253274    4.82273941038428
C         8.16872033760631    8.89466396016905    2.80347139453812
H         8.88505218633586    9.57772328308234    2.37050978867632
C         7.37403294356832    8.11925551450592    1.98117147929222
H         7.45285625611701    8.18851882226865    0.90723638751821
C         3.57346801276294    6.42086492154556   -1.16610307145588
C         3.52257423213231    7.76514487123611   -1.52990494040464
H         4.09423638282597    8.47639300824332   -0.95527146608074
C         2.74909001702520    8.15945803460858   -2.60307762580281
H         2.71380111536268    9.20319304643956   -2.87981883089063
C         2.01495212181356    7.22676787528172   -3.31845943649566
H         1.40348665892423    7.53976625540025   -4.15167155819592
C         2.07392402271001    5.89071061150171   -2.96137765069685
H         1.50798852048345    5.15613333811289   -3.51536899051373
C         2.85448673112430    5.47949329301398   -1.89679846058464
H         2.89549696112230    4.43790508161414   -1.62590912417366

