55
CSD_code = PEHXAB | q = 0 | S = 0 | Stoichiometry = C14H30N8NiS2 | MND = 6
Ni        3.45936846701001    0.00040923094681    4.57589146722963
S         0.54211733641643   -1.74652236239503    1.69962931652195
N         1.57892330632538    1.25333963939974    4.81086454265492
N         3.82833845812817    1.18926581080442    2.95471066357586
N         6.16587170447465   -0.71324371949103    0.75630160484821
N         2.48570406631913   -1.16462388891236    3.57247197527462
C         1.94313346549681    2.40427049790955    3.98860384572243
C         2.58968727602833    1.92127768706943    2.67440168139091
C         4.41609110209037    0.51668723979393    1.79772574639420
C         5.74624112672204   -0.23338866137613    2.07140237738207
C         1.32794185840198    1.51575528517133    6.22176724274631
C         6.78574379774691    0.71551373751306    2.69238538289459
C         1.65589363781402   -1.36969184406093    2.76231086011698
H         0.75492414018771    0.81882055560114    4.40051777051943
H         4.50756083645368    1.86982725432209    3.29873543492390
H         2.66755210239951    3.00632659207271    4.54473706587379
H         1.07683665838359    3.03806357881824    3.74603289982793
H         1.89911414936690    1.24978678106024    2.15723220430968
H         2.78071132163389    2.78849269638133    2.02625903054624
H         3.69998012909545   -0.20508943940472    1.40065209931398
H         4.61867686412496    1.25505636408425    1.00453190854046
H         0.41395304886627    2.11769631225853    6.36077714100303
H         2.16695279769760    2.08561288837306    6.62605318057559
H         6.47710904342725    1.06623518688906    3.67340637280875
H         6.93656297422363    1.57932725157821    2.04552416164920
H         7.74059675354291    0.20200463195759    2.79724265502996
H         6.30901469585979    0.06099616534537    0.11772799815010
H         7.03952147029115   -1.22305471580760    0.82150386446023
N         5.33908962046922   -1.25385046783073    4.34136823343274
N         3.08901399400261   -1.18849552499068    6.19681942871729
N         4.43492711357487    1.16542034465601    5.57735597685143
C         5.58933250623438   -1.51588352930332    2.93024333726050
C         1.17098372313357    0.23349948534332    7.08088072380536
C         4.97373917949183   -2.40466144752918    5.16327123626248
H         6.16350268828888   -0.82017534651202    4.75171908888717
C         4.32697619182268   -1.92162623027023    6.47735900126825
C         2.50103456970329   -0.51677895159951    7.35422383924492
H         2.40948947248925   -1.86841546411937    5.85204387765728
C         5.24939828418530    1.36965290376212    6.40318218672464
H         6.50305972806354   -2.11806115299604    2.79058935797661
H         4.74990368413062   -2.08531584799981    2.52625831187380
N         0.75193208169384    0.71374752378423    8.39601409860076
C         0.13097550649992   -0.71532799536697    6.46061759014407
H         4.24909726103875   -3.00608151195794    4.60675707245430
H         5.83947319285850   -3.03913871292017    5.40605610161590
H         5.01778217823830   -1.25088581971367    6.99519612536715
H         4.13495488259563   -2.78895143622185    7.12506249147206
H         3.21703578785777    0.20459282931796    7.75223351740038
H         2.29823598173760   -1.25580266734338    8.14675060327250
S         6.34569967859013    1.74689253877172    7.48371675939563
H         0.60866456808193   -0.06030451558385    9.03478168758192
H        -0.12151283506459    1.22392673737482    8.33095563492259
H         0.43862387884246   -1.06622347374892    5.47936380068044
H        -0.01940255300593   -1.57912471220436    7.10760958558461
H        -0.82393295408193   -0.20177831070008    6.35646983726168

