76
CSD_code = PEHZUA | q = 0 | S = 0 | Stoichiometry = C36H36NiP2S | MND = 4
Ni        7.09205739514890    8.60516322642223    4.89391002791629
S         8.02263916833148   10.33397032249547    3.74461047527610
P         8.01338588351058    7.15934231646630    3.59758243237492
P         4.64747013062492    9.83720892402453    5.17044742589037
C         8.92127170892478    9.52221961842016    2.50244927132059
C         8.96187120689672    8.12402353857111    2.38733968499653
C         9.73161737973002    7.51786362511485    1.40158385406700
H         9.75930233529366    6.43622586176216    1.35375927491848
C        10.45198622795801    8.27311580274094    0.49322734565312
C        10.39174284789493    9.66378563292620    0.59765572445055
H        10.94904727726535   10.26863607120972   -0.10472727168888
C         9.64776936305350   10.27846734083534    1.57859311322559
H         9.61972711202464   11.35515382089316    1.65654685762117
C        11.27648332941513    7.62728997008580   -0.58066833287077
H        11.26802558590228    6.54490009928599   -0.47588257448358
H        12.30816285667515    7.97390001742323   -0.53021255795150
H        10.88760141447260    7.88344422277491   -1.56667139880193
C         9.29233934921624    5.99119880210327    4.15402620346305
C         9.36989138453139    4.65152677179928    3.79919590450298
H         8.63220741189682    4.21845035268065    3.13831094872313
C        10.39925707903268    3.86807358527844    4.29213675139352
H        10.45748365042646    2.82517523674519    4.01373009892676
C        11.35295799961222    4.41268419654971    5.13487849051022
H        12.15092116185337    3.79341950632922    5.51828895401639
C        11.28485425738493    5.75266718869861    5.48321445941342
H        12.03136665489904    6.18075865054156    6.13627156599294
C        10.25906193513325    6.53630287825672    4.99554408562945
H        10.18940362103657    7.58572630998108    5.25470989956233
C         6.90308368231286    6.12794431711664    2.58638761920885
C         6.20370630105272    5.11600217738099    3.24319222582371
H         6.39929220031125    4.94238031785964    4.29428086376960
C         5.28104119995172    4.34733787017161    2.56113786904158
H         4.75170955384953    3.55535642752965    3.07227338459823
C         5.03067711598156    4.59503638881839    1.21942373320809
H         4.30854946456292    3.99485058535580    0.68497976121063
C         5.70179919097661    5.61649903028215    0.56884071522848
H         5.50022356278983    5.81602779235229   -0.47396564517683
C         6.63159396762104    6.38526259105992    1.24814659273192
H         7.15199714473100    7.18541448853207    0.74065570532907
C         5.86149714895919    9.12244986880942    6.24834748686922
C         5.97326275265465    7.70048999085356    6.17159166663360
H         5.14841684420319    7.12944007157993    5.73890028634183
C         6.24787951811365    9.94137783366501    7.42072897846065
C         7.04818821174895   11.07394524577108    7.28854414540876
H         7.44273050278098   11.32995040047483    6.31367910215984
C         7.38106781792563   11.82737879208141    8.39837636312268
H         8.00655702198783   12.70069958208287    8.28379779068527
C         6.92888262152581   11.45732750731863    9.65442416310765
H         7.19342629812762   12.04420271214838   10.52181307773594
C         6.14760756581928   10.32249490856881    9.79646739174719
H         5.80166008929158   10.02218860492584   10.77516750616297
C         5.80477668911689    9.57062609974923    8.68866377912281
H         5.19623033879493    8.68348692838484    8.80104756388628
C         6.84139932008381    6.97386391527056    7.09652681675162
C         8.10923714945357    7.49495723783401    7.38311395489727
H         8.41465654546397    8.43345334465904    6.90714306819459
C         8.97702210739516    6.81756453166776    8.21140705593583
H         9.95548568849109    7.22573617209907    8.41926934755565
C         8.60001835020874    5.60473319248392    8.76975558307487
H         9.27968337283889    5.07223992037757    9.41872471033580
C         7.35662027482827    5.06996293440236    8.47902413547579
H         7.06643659825696    4.11827208767675    8.90205654033343
C         6.48282663351186    5.74506216210440    7.64728216836949
H         5.51438182810096    5.31874215739421    7.41838577311214
C         4.53617013681619    9.00856828418803    3.55801914972319
H         5.54703429479236    9.02093260661350    3.11672340880139
H         3.83961763654236    9.55061047728038    2.91860374584924
H         4.20543235844928    7.97613185930129    3.67310953806200
C         4.93251125557025   11.59163401483845    4.84241537280021
H         4.99843075550013   12.13216326805185    5.78571462286594
H         4.10911336634054   11.98046035158239    4.24425311685163
H         5.87454421009911   11.68520065754605    4.29723920668818
C         2.96028958144847    9.75445871929053    5.88561957947940
H         2.70339219141787    8.71386054050313    6.07937529562637
H         2.22817361740903   10.18910303181307    5.20793597797953
H         2.95456019382650   10.29992410981063    6.82874899129369

