54
CSD_code = PEJCEP | q = 1 | S = 0 | Stoichiometry = C26H20N5NiO2(1+) | MND = 6
Ni        3.43427340890399    5.47448817969302    3.21461470887380
O         2.65847591234889    4.61791390036300    1.54484625669587
O         4.23461679663559    4.57627702917677    7.22357397906562
N         5.54332658456836    5.10995654133265    2.59834071437661
N         3.76520977917809    7.05107109573377    2.37831649540449
N         1.55834348894947    6.55380056182174    3.73902899626580
N         3.07901838169262    3.90017476630321    3.96691626065265
N         4.13270448257246    5.82361905846944    5.23580629195788
H         4.55292128422128    6.61726390822895    5.70890120460106
C         6.29158999769262    4.01783568802357    2.62287400328467
H         6.00670369288745    3.25575176987712    3.33711446536108
C         7.38929913550599    3.83617775772636    1.79455856422070
H         7.97107000332269    2.93056595890141    1.85082252176213
C         7.71131483283735    4.84072564318762    0.89617781279857
H         8.55086014611209    4.73341498802135    0.22677272278210
C         6.93384753468734    5.98666608318428    0.86480889890661
H         7.15430036968364    6.76861995993605    0.15698243289270
C         5.85369988244953    6.09279731573947    1.73745456974737
C         4.94119026314636    7.24767617665107    1.76398137326370
C         5.25361788884350    8.47476557708912    1.18255969744632
H         6.21365002155374    8.63117165974181    0.71982465698679
C         4.32269864569556    9.49755530297255    1.22105421302495
H         4.54893871072282   10.46022141472870    0.79004242008942
C         3.09193609009345    9.26302968783914    1.80806558740509
H         2.34772237390414   10.04115090299496    1.83744326789216
C         2.83378465420249    8.01635858149159    2.37430891986297
C         1.54163041245973    7.66598255758552    2.98662507045951
C         0.37070918268555    8.39161298508229    2.78120783249624
H         0.36244811873941    9.26568066849107    2.15117906189123
C        -0.80122839904660    7.95736719386841    3.37837482619629
H        -1.72160668151891    8.50115586974035    3.23117630275453
C        -0.77197114234099    6.81385214920336    4.16030145490640
H        -1.66232709488400    6.44512134062776    4.64307611818177
C         0.43421872603689    6.14462659070764    4.30637834121535
H         0.49801382322388    5.24627882202746    4.90719387357315
C         2.30431629889465    3.41022304248761    1.83246453314306
C         1.72718498973636    2.48219696618665    0.96257614904317
H         1.54048948094132    2.75884873308266   -0.06252344030053
C         1.39869051550768    1.21229848857361    1.42460807742221
H         0.95366338231001    0.51744554316172    0.72745358396615
C         1.61239876663575    0.79591926000519    2.72708673964552
H         1.33940249680688   -0.20033634903325    3.03582576714194
C         2.18668795743508    1.67305638150906    3.65019189608060
C         2.52454392914013    2.97509404650275    3.17930668214804
C         2.47133751338653    1.40800644604572    5.01054413003549
H         2.23505272072803    0.43718569923570    5.41954828709002
C         3.04062777336232    2.37472169796214    5.79722975723631
H         3.26877542990827    2.20124504056859    6.83649241941676
C         3.33981587404422    3.63380272868058    5.24073539594969
C         3.94703372903196    4.76920289784081    5.94120854938489
C         4.82380505505537    5.63224277178541    7.96624740448421
H         4.96143646264335    5.24215632670845    8.97203637135820
H         5.79443152965019    5.91322273758118    7.54868848359425
H         4.16510478701866    6.50423985455316    8.00087529586428

