94
CSD_code = PEJFAO | q = 1 | S = 0 | Stoichiometry = C49H40AuClP3(1+) | MND = 2
Au        6.04553410122676    9.86579235417169   10.55310953946662
C         8.74513723319474    7.77959020538480   10.37711198357372
C        10.09763785087703    7.72568996893082   10.04435755647272
H        10.44234532974992    8.23199187625962    9.15307248300054
C        10.99940077932279    7.04350022124473   10.84079384759164
H        12.04154829559961    7.00764505187938   10.56334973915300
C        10.56176001237380    6.42646031331893   12.00081351298727
H        11.26155789883456    5.91549307281166   12.64381846028012
C         9.22057144750142    6.46628996422924   12.33812917560228
H         8.88468754581038    5.98757349485261   13.24766335787407
C         8.29428967645731    7.12445188524416   11.53077099276526
C         6.98061862040124    7.68298221870421    8.10804214392205
C         7.54051183927863    6.43991458123451    7.83622999964921
H         8.42995555430308    6.11812412135443    8.36084237834032
C         6.94499474513043    5.61812834289702    6.89496800103729
H         7.37754233494964    4.65265000242329    6.67811831711606
C         5.79713126494815    6.02708023646850    6.23499830660957
H         5.33272476515697    5.37609497144705    5.51036966882916
C         5.24298639697760    7.26972297893883    6.50168252783448
H         4.34951606379000    7.58865013372907    5.98713085051549
C         5.83210220061075    8.09804269295138    7.43715650382293
H         5.40460979731178    9.06741239107827    7.66522138022883
C         8.74518332091789    9.91458042221928    8.47902498217736
C         9.06163090008632    9.76072495349282    7.13327729757648
H         8.66149192265672    8.92717493210554    6.57257262624734
C         9.89008279661015   10.68517509822548    6.52104949368822
H        10.13755140280409   10.57115204571622    5.47658170274702
C        10.39772472751411   11.75406723980412    7.24172429544936
H        11.04121694220563   12.47164781024464    6.75669859191102
C        10.07466797171619   11.91231677565649    8.58173678240950
H        10.46442283299332   12.75123396152961    9.13766811975966
C         9.24235142707624   11.00010397540133    9.19954800609516
H         8.96403076182065   11.11654410200468   10.24059176110198
C         5.56246799193438    6.65944020914267   10.69126040955836
H         5.40910129302875    7.53670175421383   10.06328733508043
C         6.35950660847405    8.43996529423325   13.23836539208175
C         5.12793196288319    8.60055745683237   13.86486583790836
H         4.31919135779415    7.92173203583616   13.63591681708340
C         4.94154746119687    9.64032997235247   14.75533421157456
H         3.98186179911499    9.77180334197083   15.22993026966698
C         5.97801085408005   10.52168815319834   15.01593951421454
H         5.82651317264575   11.34332875315204   15.69866221225655
C         7.20520689889299   10.36173882220111   14.39122287826454
H         8.00871777041348   11.05391535628958   14.59181760923622
C         7.40284393426505    9.32374134747616   13.49985750283595
H         8.35840678704574    9.20023566414340   13.00645885341042
C         6.47832618642484    5.57039534549387   13.11407048727386
C         6.26325613091810    5.61013583747499   14.48714889200908
H         6.14826676792120    6.55694389527427   14.99494178292172
C         6.19686922210188    4.42616550074802   15.20226994122328
H         6.03065466148718    4.45601709875537   16.26827825986262
C         6.34381682410579    3.20922611004348   14.55613851487245
H         6.28592485209893    2.29014118622340   15.11885195674066
C         6.57738198263255    3.17017641509398   13.18910361419731
H         6.70462279264913    2.22344253757986   12.68602179701745
C         6.65231211758667    4.34733324143235   12.46899985309789
H         6.85873532032853    4.33228669438015   11.40860951427194
C         3.03902758547006    6.02940490051646   12.42235292962997
C         3.27399138337639    5.11713312739911   13.44890147692848
H         3.95911350883548    4.29496457175696   13.29765705217854
C         2.61656110962156    5.26244147354345   14.65677858107381
H         2.79726121006202    4.55313826204970   15.45016672919986
C         1.72930402408115    6.31054061183636   14.84647396506426
H         1.21933056620587    6.41961649825352   15.79120572422818
C         1.49300324097833    7.21506233140146   13.82324796814094
H         0.80142780610063    8.03058214781383   13.96714826861336
C         2.14657646814085    7.08186980538627   12.61101191890103
H         1.96692156712257    7.79479715607695   11.82034437638200
C         2.97661309500301    6.62761780088812    9.54469925014508
C         2.34465764316910    5.81951064260560    8.60477171131936
H         2.42822468375339    4.74406572678674    8.66871471089661
C         1.61071545293845    6.39818061616716    7.58472425225189
H         1.12347175751476    5.76934832993411    6.85499814649039
C         1.49745156412442    7.77654901183120    7.50166381167988
H         0.92058608908998    8.22291238304472    6.70596007045609
C         2.12022453110878    8.58197389569079    8.44199878017425
H         2.02874507203950    9.65613288867444    8.38922712356999
C         2.86250224939426    8.01486047756584    9.46148403639563
H         3.34133562335777    8.65899534046505   10.18872233923327
C         4.10062899037583    4.14374073686539   10.46085114460317
C         5.09944707571826    3.76132141666476    9.57007482939562
H         5.78890451804245    4.50938386434822    9.20031990303048
C         5.19434477128758    2.44314991484309    9.16543661563116
H         5.97031850263015    2.14427194343232    8.47686608124863
C         4.28921162645286    1.50608999089494    9.64014375667151
H         4.36653542380412    0.47586589590746    9.32815851572956
C         3.27566075257347    1.89204359103590   10.50272136742946
H         2.56002529096783    1.16542338063735   10.85603488501135
C         3.17074862695447    3.21102912044245   10.90856463383339
H         2.36692432190729    3.51536437686442   11.56397009648468
Cl        4.18085377623046   10.61558682412080   11.64129823053003
P         7.63325569929978    8.80400997787739    9.37216561577487
P         6.55684020407588    7.04821749048989   12.07851943615963
P         3.97266067799110    5.90335905639456   10.86884382299930

