69
CSD_code = PEJGAN | q = 0 | S = 0 | Stoichiometry = C34H26N6P2Pd | MND = 4
Pd       -0.13867867818840    5.42810312855556    8.98530832843989
P         1.32166443518636    7.05819197660697    8.54690506145725
P         1.53310731609585    4.44212646128786   10.09729225574664
N        -1.36751226898301    3.85420085731175    9.20528324356407
N        -2.04869997910234    3.73494859865709   10.15411532179794
N        -2.73734677212718    3.47257122307594   11.01933656305578
N        -1.57123780724721    6.30265840055784    7.88536802688798
N        -2.26796497280816    6.85491040529292    8.65725029397766
N        -3.00731614059197    7.45900259614335    9.27581121347674
C         2.69282744364856    7.50083241122524    9.66781453994885
C         3.19155350926848    6.70070184349941   10.73555637927240
C         2.76013510130498    5.37970687515151   11.06398597129306
C         3.30379135881791    4.72416295074849   12.14994845702197
H         2.96366772451726    3.72631376713282   12.38834069788094
C         4.28959989446931    5.30653565080101   12.94971601037745
H         4.68718328579818    4.75822743751528   13.79014299636728
C         4.74561748866944    6.55601293239368   12.64524777745726
H         5.51866886865967    7.02277250239540   13.23779626851986
C         4.22060677491250    7.27048144563801   11.54769545444704
C         4.73108169658988    8.55361862983861   11.26300307174952
H         5.51053433977621    8.94707514483195   11.89890875551087
C         4.25336822476310    9.28181651532467   10.21142043693932
H         4.64813588290727   10.26099603958892    9.98687378683183
C         3.22764774684599    8.75165180936282    9.42821395962436
H         2.83443148220393    9.34138368137664    8.61100973602524
C         0.49731267383798    8.64851822748792    8.25817909165119
C         0.53606700746092    9.35602517682716    7.06328129646234
H         1.14205115265983    8.99783214890961    6.24169124562457
C        -0.21537636595214   10.51132138249512    6.93494359850865
H        -0.19322471324448   11.06264244446223    6.00626850790544
C        -1.00277046382232   10.95414547271582    7.98524276216722
H        -1.59503467886304   11.84965990167084    7.87151070079825
C        -1.04816434752460   10.24439344265003    9.17575441817461
H        -1.67946778664512   10.57772180177044    9.98474819246136
C        -0.30297348016638    9.09038454614357    9.31127662520088
H        -0.34606460906063    8.50377436532359   10.22688034824785
C         2.13317549454682    6.61188787164485    6.98611019520893
C         3.49828229055012    6.70877769170554    6.74640245085429
H         4.15762724925681    7.10594808196818    7.50551799001298
C         4.01094417558417    6.28842527934684    5.53126100281291
H         5.07257339404801    6.36090179871593    5.34575142896866
C         3.17011949222425    5.77768410462277    4.55709139022781
H         3.57768199523273    5.45524886724620    3.61049196134575
C         1.80844945637287    5.67162392990145    4.79782139038337
H         1.15506460719703    5.26582311158257    4.04010951146018
C         1.28845537733165    6.07417610155206    6.01291300086232
H         0.22416587979650    5.97803800914001    6.22475307197357
C         1.08381543067023    3.02542029434024   11.13590093511668
C         0.18798179614269    3.29426531038953   12.17073035743537
H        -0.13665875103814    4.31714576912665   12.33818602680162
C        -0.29124727763897    2.26442184048216   12.95496957147106
H        -0.99609544478300    2.47147234726660   13.74498373453961
C         0.11410715844825    0.96274412284256   12.70108035895927
H        -0.27087108530728    0.15379256100261   13.30356161764058
C         0.99708495347896    0.69278392387350   11.66815665141627
H         1.30120742044282   -0.32442917868846   11.46908002834451
C         1.48392171184024    1.71974530385865   10.87819450022387
H         2.16415140106328    1.51383398746521   10.06283781915426
C         2.52470155584190    3.76634917426290    8.73018828822549
C         3.91387089517045    3.71783279303017    8.72594481097135
H         4.47037030850781    4.06055902089007    9.58754348861613
C         4.58025892542366    3.23320547629622    7.61400488011710
H         5.65990694879355    3.19982749520238    7.60943295662009
C         3.86797233045312    2.79278087993459    6.51126492107567
H         4.39401183553728    2.41685946052473    5.64648886240109
C         2.48225897507047    2.83585468023393    6.51375576143529
H         1.92946170856809    2.49209335420596    5.65261239830556
C         1.80736009820340    3.32872006123602    7.61482570544432
H         0.71366934892028    3.37396427992830    7.62481153668233

