35
CSD_code = PEKFUJ | q = 0 | S = 0 | Stoichiometry = C14H13N2O5V | MND = 5
V         0.27389856626847    1.03413912098339   16.00821853277478
O         0.56624539579999   -0.44762359986378   16.93707772895816
O        -0.39143398235029    1.91509297325140   17.07178161187467
O         1.60372260380443    1.67260637611392   15.56128186516666
C         1.20385111769940   -1.70572174436643   15.05240565322346
C         1.11562113095101   -1.50958666299084   16.47109747955600
C         1.75225062432946   -2.89364146930236   14.53760151152207
C         2.21519287009858   -3.86274419566109   15.39079919014994
C         2.15559730756139   -3.67044471387336   16.77673912781427
C         1.62396512496214   -2.52533283660773   17.31275237631567
O        -0.85154310261977    1.36959071195020   14.57384645667544
N         0.70154102197170   -0.66092666435532   14.35940721662088
C         0.43503364107815    0.87713378787212   12.61289686359753
C        -0.29956238206399    1.74773255015147   13.49189712152888
C         0.82725166734440    1.37673806832765   11.34946383420167
C         0.65457591947850    2.70726686503264   11.06331602110839
C         1.48984162412994    0.49512114248445   10.31162094342288
C         0.88329639196482   -0.38361188127746   13.11456061775216
C        -0.35925001005495    3.12706693765944   13.15333309706822
N         0.12790056047930    3.54652161779820   11.98091727221746
O         1.48680289353528    1.05513448559084    9.02431482975304
C        -0.83856843005790    4.08643888440510   14.17515712307403
H         1.48256692917127   -1.02040468783324   12.45700152061311
H         0.98376380172183    3.12987972352596   10.12793692577872
H         2.54565748865672    0.36480956314283   10.57037584246167
H         1.01220467950124   -0.49333649688977   10.30330512474452
H         1.56499522049101   -2.37577399813515   18.38100542047775
H         2.62788986281264   -4.77940774070489   14.99664275565170
H         1.78758961253256   -3.04754000844238   13.46809144464953
H         2.52977012189227   -4.44383330576703   17.43159328490887
H         0.12834275189919    4.54344812479038   11.78948144790722
H        -1.89223217324111    3.91313223028731   14.39517080506704
H        -0.29970830710220    3.87377066499073   15.11142612209905
H        -0.68760590345993    5.11970418760979   13.87190862302812
H         0.58403536081340    1.07200199010384    8.68717420823656

