53
CSD_code = PEKLOJ | q = -1 | S = 0 | Stoichiometry = C6H26B18CoS2(1-) | MND = 10
Co        7.33472911158384    4.75947573020685    0.00001979268379
S         6.80229876842379    5.34634174527739    3.33842208886953
C         9.33109772278640    4.80029617077537   -0.36634627523586
H         9.44839569652353    5.19312824425473   -1.36997796355038
C         8.76863472562168    3.35116095732378   -0.22678270690853
H         8.53094630252560    2.81884864646160   -1.14141366470036
C         7.45829231741168    4.73673030632349    4.92321528263095
H         6.88829509706106    5.21606180350572    5.71562547795760
H         8.50908599394769    4.99715609086134    5.00640563517819
H         7.33714252927512    3.65829110375535    4.98203222553934
B         8.92949544503844    5.73263803348155    0.95436923969556
H         8.83149790830616    6.90578287113401    0.85601369968178
B        10.58848143202301    5.10946201945811    0.74442841503906
H        11.44667328944562    5.85950830774706    0.43311772604085
B        10.47030068311943    3.55218760218413   -0.04627667802958
H        11.15888549609748    3.19727199636849   -0.93426029621914
B         7.93331333387539    3.15987695403774    1.20684264504310
H         7.07530968059887    2.35283348773889    1.30195095120168
B         8.08260030592677    4.67686321335511    2.04291496545883
B         9.81559415784728    4.99353939005851    2.32119051148598
H        10.18651100151274    5.63909379205131    3.24493019960131
B        10.74586934502197    3.61438945023190    1.68750749968508
H        11.76781563901085    3.26236550151926    2.16998474923810
B         9.56634420494773    2.47585137502623    0.99756520860026
H         9.68514092328312    1.30668029971356    0.87462711365841
B         9.17538065634933    3.33810161787525    2.48030241292009
H         9.09636150339013    2.76446211277923    3.51434697389633
S         7.86710033623203    4.17263106432484   -3.33845691575371
C         5.33836051550377    4.71865255687442    0.36636196259759
H         5.22106181877903    4.32582379474593    1.36999379141418
C         5.90082452630106    6.16778804781077    0.22679731122717
H         6.13851049479178    6.70009834926825    1.14142904054801
C         7.21118375168815    4.78222489047682   -4.92327459115010
H         7.78118361479873    4.30288570377916   -5.71568268199296
H         6.16038771465646    4.52181132452986   -5.00643335158450
H         7.33234742882739    5.86066545373194   -4.98204804962471
B         5.73997417411934    3.78630155914846   -0.95434238637671
H         5.83796934662474    2.61315587052297   -0.85600228419800
B         4.08098869021592    4.40948089566282   -0.74442587289095
H         3.22279213045880    3.65943600728443   -0.43312376581275
B         4.19916024615641    5.96675885211156    0.04627352093008
H         3.51056931540789    6.32167624014352    0.93425160968529
B         6.73616085321394    6.35907197934069   -1.20681868996043
H         7.59415901289667    7.16611859780665   -1.30194314288990
B         6.58687844604308    4.84207931087352   -2.04286972081806
B         4.85389390476892    4.52539569092372   -2.32118087475679
H         4.48296306420674    3.87985072002245   -3.24492369678173
B         3.92361006614044    5.90454910771368   -1.68751450139199
H         2.90166306289779    6.25657268075516   -2.16999393998791
B         5.10312653881211    7.04309190764789   -0.99756320696755
H         4.98432305325536    8.21226359621566   -0.87463341267703
B         5.49410782362124    6.18083639642562   -2.48029315531344
H         5.57310679862730    6.75448057835324   -3.51433822493429

