76
CSD_code = PEKNAW | q = 0 | S = 0 | Stoichiometry = C31H41AuClNO | MND = 2
Au        0.07630730688375   12.66851551843497    3.31443255204203
Cl        0.21317712692838   14.90219728555927    3.56497033418730
O        -1.03347409851641   10.01059472546142    3.79703316827577
N         0.58322640151785    9.82049782525180    2.32326910361697
C        -0.07692977929242   10.65001517203179    3.11189652633004
C        -1.79684600655680   10.73990625025890    4.71140692438321
C        -3.12888992325163   10.99825336432430    4.37573660375493
C        -3.92026950727647   11.65737627205525    5.30327350806780
H        -4.95108923014124   11.87198781292640    5.07463588284364
C        -3.40022226714006   12.05013355941636    6.52269442172635
H        -4.02817018007955   12.56639346853716    7.23310526807589
C        -2.08302709163321   11.78374869697924    6.83504708655590
H        -1.69075367252751   12.09043783907738    7.79143154769016
C        -1.25128789402989   11.12829350850970    5.93580403130524
C        -3.65688092940393   10.52575618423518    3.04214629348688
H        -2.86058148538508   10.66480530155217    2.30312389634558
C        -3.97389549738227    9.02876467654961    3.13072265181824
H        -3.08038293890700    8.46179485401372    3.38192257951268
H        -4.35843026533685    8.66702909460743    2.17961483528409
H        -4.72507787722302    8.85102780635644    3.89741691847698
C        -4.87752154862216   11.30393551357263    2.55880423025788
H        -5.75343910708275   11.07533953213595    3.16091832288487
H        -5.09972834046499   11.03064245916050    1.52927733021559
H        -4.69022682341406   12.37444307884019    2.59660772033587
C         0.17363541987843   10.80548199093164    6.31559690134840
H         0.70731650479668   10.47259771049979    5.42027761968999
C         0.18362973554301    9.65868476793187    7.33046896070474
H         1.20698930799579    9.39418374057850    7.58828100099238
H        -0.31144398132836    8.78187488720831    6.91751634940902
H        -0.33777685792481    9.95015455701006    8.23890620422788
C         0.91460110181427   12.02674741621266    6.86001465225321
H         0.82857322845003   12.86311901453034    6.16906933910953
H         1.96930593186676   11.79172426488829    6.98813495169022
H         0.51733776417401   12.33313826865956    7.82351904313902
C         0.14414565907452    8.44872736292044    2.26838065253274
C         0.64224897591244    7.51500102303061    3.17886139215819
C         0.17275260855237    6.20872963223530    3.12153829064553
H         0.55961713943744    5.48381167908529    3.82247511818953
C        -0.77806895673621    5.83368500435146    2.19341624789395
H        -1.13449886276850    4.81536455127356    2.16205170925670
C        -1.28092782875948    6.77268689628406    1.31441165961043
H        -2.03580012030385    6.49012205495885    0.59568255238187
C        -0.83788124446452    8.08856574395854    1.34204348282400
C         1.67646525304696    7.85939694465488    4.20789384030954
H         1.71272862494529    8.92602456018527    4.40409271933756
H         2.66367032496103    7.53726525540141    3.87417121705837
H         1.45991417348119    7.34390572596171    5.14076734265077
C        -1.42068957678080    9.06399448510489    0.36378708759090
H        -1.33691591025763   10.08941780443589    0.71387551147305
H        -2.47085732495021    8.83764048882820    0.19410320496440
H        -0.90825954428707    8.98550808938814   -0.59640983453864
C         1.74848569049031   10.23917479957590    1.50479397440436
C         2.84262073826638   10.81334300476319    2.41443284734295
H         2.45045872602451   11.67222626421821    2.96319980735854
H         3.15483098320155   10.05870230113961    3.13830304183826
C         4.04742008128044   11.24393947600305    1.57972523992173
H         4.80893402662175   11.65842827922496    2.24830179711542
C         4.61486807068435   10.03110330826908    0.84534126559964
H         5.48426403299655   10.32522591504702    0.25459456257216
H         4.93980878277419    9.27546394674428    1.56446644891432
C         3.53689306637849    9.45492244625467   -0.06949141066016
H         3.92962503273813    8.57425646260391   -0.58992714446056
C         2.32327827608430    9.02860174942310    0.76104603973650
H         1.56876746498210    8.59746453350665    0.10079766105686
H         2.62788505886230    8.25793412844825    1.47062127111513
C         1.33916253143379   11.29097763269365    0.46618882933717
H         0.91061368098459   12.15971411533468    0.97103289784720
H         0.58382235660439   10.87779879475252   -0.20271980419408
C         2.55589875324889   11.72085817605904   -0.35226605964714
H         2.24168318573427   12.47987918949232   -1.07587726046182
C         3.61718789333283   12.30807159611670    0.57388210382709
H         4.47835333385066   12.64014012320391   -0.00903003298484
H         3.21137621449304   13.17381559718091    1.10024200977413
C         3.12213962450146   10.51037819842735   -1.09145430977119
H         2.37111009557433   10.10016546515822   -1.77062040802813
H         3.98571438182501   10.80757077599979   -1.68920232193089

