55
CSD_code = PEKNAV | q = 0 | S = 0 | Stoichiometry = C18H13CuF12N6O5 | MND = 6
Cu        3.74278239967502    3.83084640890651    3.07304820176423
F         8.58076236927509    2.75189423126314    4.22343027237671
F         7.85987999238579    4.65325874316103    4.92588537405906
F         8.75655802332854    4.49357939989829    2.97573459508729
F         4.62782282604463    0.57854355126085    0.03428082015848
F         6.74829545373568    0.56267739195823    0.39904639562095
F         5.88778207502275    2.07913297713657   -0.85427708133182
F         0.15228256594960    3.02116096381984    1.03941849728586
F         0.30385932805645    0.87360856237898    0.98151350488163
F        -0.85330209184182    1.83252646211301    2.51911328143823
F         3.53974618358205   -1.42490720299168    3.87445772868442
F         4.99930967847224   -0.30703492557089    4.99153024163540
F         5.08784373235529   -0.33749083776042    2.84155111166226
O         1.56766054153008    4.06030545368827    7.30872922776550
O         5.61170942081819    4.19925535102625    3.73366469562225
O         4.26771012582421    2.64171225586041    1.62646107406314
O         1.74764444621105    3.19672661034767    3.13621273280130
O         3.80420086227593    1.99318047239066    4.38024176746812
N         2.92741788264826    4.78163348166263    5.61275155140301
N         3.06043128123231    5.17950086450456    4.36045250150207
N         0.65675336937136    5.23190797050192    5.58013539483253
N         0.77461526123312    5.75590051279590    4.35902768847726
N         3.10982739130162    5.39092990716651    1.70610200063664
N         1.23006189254796    6.52560812366445    1.50761087493451
C         1.92469979772884    5.64083223137918    3.76573338150286
C         1.69218719607046    4.59953873150027    6.24032964900918
C         4.12039132823101    4.40994516408523    6.32669064570103
H         3.94003376500844    4.52437933287309    7.39365302234556
H         4.93811186932066    5.03725484201516    5.97936867247399
H         4.36358605500336    3.36889772675432    6.10754955889110
C        -0.64955144930871    5.30018980188361    6.18634173259834
H        -0.54343049217416    5.10101194399431    7.25064018065460
H        -1.30738370018074    4.55098398661438    5.74257626402801
H        -1.06802095717933    6.29014459887871    6.01527479460235
C         2.07789866332849    5.91231997982368    2.35761978128499
C         2.92598764900079    5.67755934232588    0.40219707685437
H         3.62312126646710    5.36126158112825   -0.34631038033322
C         1.76169026022127    6.39003533207053    0.26477561002230
H         1.28654334510813    6.79213975073324   -0.60614259400801
C        -0.02076784616097    7.14110263074760    1.84615774658673
H        -0.40442771473796    7.67735169849062    0.98064086783031
H         0.11514692433169    7.83131606140701    2.67780987481842
H        -0.73717932538683    6.37676438034700    2.14946832229168
C         7.95153134680471    3.87117539393014    3.85082627800898
C         6.56269210588145    3.58337389236678    3.22645758140051
C         6.59575122143705    2.68447787524551    2.16010704032826
H         7.54341391247152    2.25809716224080    1.87496770048232
C         5.45531147260159    2.30204270001009    1.46136797538122
C         5.68418310947554    1.35405320631850    0.26184139459980
C         0.28370923342326    1.92481225281258    1.80197276561711
C         1.50722550387663    2.03397629676796    2.72759558362809
C         2.20869882667249    0.87749096903564    3.02684789230125
H         1.92459545227624   -0.06552876211503    2.59456180913614
C         3.36894710290507    0.98121105067716    3.80812360475765
C         4.24374906643534   -0.28806788353075    3.89213371437804

