45
CSD_code = PEKPEA | q = 1 | S = 0 | Stoichiometry = C11H23ClN9Ni(1+) | MND = 6
Ni        3.98001241224560   -0.42679062271801    3.14965948000773
Cl        3.74352906767669    0.89982956623813    4.72352834806060
N         0.05946772383398    0.98901207860544    2.63692876875924
N         2.27976236444061    0.21525956786709    2.39794471554072
N        -1.10096046462122    2.21338536136906    1.08987015069836
N         1.57833771812790    1.86485745026813   -0.60974252956252
N         3.29200833234000    0.74246028812889    0.25471428771240
N         5.83631278579727   -1.21491159167908    3.87830627499199
N         5.57793102058384    1.16140189733418    2.31077084637032
N         4.30461498059409   -1.66709560505072    1.66343285016741
N         3.26481287950632   -2.12701869963232    4.72225953574079
C         1.13650456985689    0.36787127232287    3.05798556245156
C         2.28283875617151    0.76466267625201    1.17026226698507
C         1.17882326895970    1.46571659901536    0.64341605853253
C         0.02609468683672    1.58099128599923    1.44058364365193
C         2.83966497695043    1.40240296711376   -0.77445410874215
C         6.91523594152481    0.69239135490754    2.66246817891461
C         6.83666957240539   -0.13628700835458    3.95162636517636
C         6.28448385363118   -2.27211026794189    2.94736238984073
C         5.13396335421429   -2.79625837948617    2.08453434435658
C         5.62462962473975   -1.75382357529206    5.23132556603759
C         4.45980223129014   -2.74551166602915    5.29966618471302
H        -1.18641366353172    2.74254574312016    0.24154004236285
H        -1.84050462386131    2.25299116963728    1.77122469089704
H         1.04509794922562    2.39400617323033   -1.28030136114795
H         5.54098716640749    1.47821639927001    1.34698810912507
H         5.33267352546041    1.95240918777053    2.90496825798532
H         3.47020264687449   -2.00437528530278    1.18959978512481
H         4.80289721123357   -1.07589973999350    0.99616385872982
H         2.55693246940500   -2.83053244522669    4.53340831801506
H         2.87539848703038   -1.48152513796347    5.41007472172264
H         1.07028100476356   -0.05687877858838    4.04993415924097
H         3.40219066808542    1.56539422739070   -1.67287817700903
H         7.62471501843815    1.51265914828130    2.83449913110394
H         7.30390490188599    0.09518784435902    1.83345973775771
H         7.82684423797872   -0.54843135674072    4.18537633528279
H         6.53634565778628    0.53387557380370    4.75897804765982
H         6.74794669098639   -3.09766382907875    3.49848289093667
H         7.04301597870544   -1.85546528580116    2.28428524658358
H         5.54422979877440   -3.34600468022954    1.22611416677390
H         4.50314451961882   -3.48105632413963    2.65150175791005
H         6.53946641614209   -2.24253896913434    5.59274642951460
H         5.39093261149369   -0.91377100513683    5.88818537701432
H         4.69922311525168   -3.65615831528478    4.74669813208034
H         4.31984855474835   -3.02851926348738    6.35130116192229

