37
CSD_code = PEKQII | q = 0 | S = 0 | Stoichiometry = C8H18B9IrS | MND = 10
Ir        6.56392661949824    8.22213604037186    3.51293006695031
S         6.55776037153077    3.49433376844873    2.56710069838368
C         8.24365320133723    7.01132359333764    4.21901884937172
H         8.46728314438286    7.28097200627433    5.24693700622926
C         6.29705410694268   10.12686789338698    4.80678310445955
H         7.04736744456829   10.61266045712442    5.40821782980842
B         6.83293312514369    6.15301695100707    3.87664738185209
H         6.12252524245018    5.70019038026097    4.69592750629594
C         5.35401051840432    9.17882744374697    5.27334398944019
H         5.27452328959764    8.81702791821987    6.28471826575807
B         6.34159078372531    6.51930897858978    2.19107812616834
H         5.24629704057395    6.27971465118578    1.83362284261766
C         4.48752160916702    8.86419200588787    4.21346132084968
H         3.61545758289986    8.23579714534640    4.27184988245248
B         7.48038526765974    7.74336404234958    1.59396916313725
H         7.20644151572966    8.53678590430121    0.77018543616451
C         4.90627633006219    9.60389677649407    3.07314717419476
H         4.37082723313928    9.67517001570582    2.14086396770190
B         8.64814003418046    8.06497735228568    2.94997323781957
H         9.17194498343454    9.09210570885802    3.18943929199348
C         6.00768486511875   10.41320549554885    3.45939788603781
H         6.48328485295124   11.16505989403692    2.85366743282262
B         8.45094826234512    5.38486591537240    3.82554448675339
H         8.64774867334520    4.55225231713735    4.62524777780271
C         7.31340876644539    5.15407780897979    2.57803853401717
C         6.27591675639308    3.17476152028476    0.80082768197389
H         5.79058238762586    2.20484820094901    0.74723672932010
H         7.22456898439626    3.14366160064869    0.27366480881719
H         5.62653472128312    3.93874909131425    0.38491779296122
B         7.69464990621916    6.03833795718395    1.16698413136343
H         7.48312234926029    5.58724071044002    0.10419475729084
B         9.12134500308017    7.02090414410299    1.59842270883335
H         9.91301543438194    7.33867798125466    0.79031685519017
B         9.58649055871410    6.58151855626063    3.25269662704532
H        10.66121577457672    6.65425359228437    3.71874352051786
B         8.97945708309408    5.33912256818486    2.15147762724107
H         9.56390617634191    4.39919361283466    1.75910550036249

