56
CSD_code = PEKRAB | q = 0 | S = 0 | Stoichiometry = C14H31B9RuS | MND = 10
Ru       10.34736773133268    9.08341906909974   13.62645850079511
S         6.76834959157867   10.40501117774896   10.72869725963739
C        10.31031333511356   11.11972539311011   12.80321437178853
H        10.54125523225002   11.84785305732740   13.58248961236841
B         8.82208692195547   10.30125762310630   12.81212447312193
H         7.87634911920601   10.62078260051387   13.46021443072638
B         9.06373412826615    8.75545276292802   11.93680799011038
H         8.25426988951747    7.88951249615886   11.97338467306030
B        10.76503865644022    8.66903634119973   11.47122985683749
H        11.32331923210418    7.64378650487370   11.27219867170787
B        11.53699738667787   10.15072903518429   12.12314439442204
H        12.65319656199958   10.27592869223802   12.50049229416827
B         9.20567543482259   11.65915975823846   11.65364054241656
H         8.53739247949495   12.62121056407148   11.77919131577809
C         8.50670567588686   10.21076844419642   11.11381152579433
B         9.57386572753192    9.22280699910582   10.26689993823003
H         9.14551994956627    8.60218638935775    9.35185013963873
B        11.15160409141138   10.04294175761965   10.36726343719744
H        11.97184067190636    9.92413346096085    9.53010774094612
B        10.90086700402358   11.56872656459162   11.24068708871934
H        11.53074404383870   12.55798333464354   11.14276879459430
B         9.70739392753999   10.99366046030800   10.09788872830668
H         9.35175631817854   11.52237399362673    9.10729819052999
C         6.12420191721023    8.68962588836595   10.55450068837674
H         6.03287269393522    8.26724147783930   11.54869046500287
H         6.81019851731294    8.09681825310523    9.95907582455736
H         5.14636976240666    8.74415162986601   10.08679117527858
C         6.68745536050925   10.73943931111826    8.91402552268355
H         5.66232481514832   10.60152812721930    8.58670086731636
H         7.35751424494305   10.06696330402707    8.38987172010933
H         6.98865394424879   11.76824511110058    8.75242165655210
C        11.70446531789149    7.76600275582249   14.75697585456587
C        11.65484706997534    9.03540378256809   15.40574370066326
C        10.30487158482020    9.26526531575689   15.82898673823644
C         9.52214475094244    8.13373896513788   15.44719697287099
C        10.38221159979758    7.21093215531115   14.76796260519631
C        12.94660770194190    7.04404490813154   14.32894334576856
H        13.33806378164078    6.44369613447478   15.15404355024986
H        13.71787555206767    7.74617409441018   14.02110125339754
H        12.73921449701036    6.38084287411608   13.49228279588697
C        12.84403935562733    9.87158710314172   15.77552162661715
H        13.27009491874555    9.52529518117299   16.72053242986662
H        12.57062984818128   10.91877059183532   15.89394464443221
H        13.61720499670288    9.80694790607972   15.01242848596558
C         9.84078418697238   10.38488304835950   16.71386929733803
H         9.91681873470879   10.09284754118232   17.76438895633570
H         8.80199347144541   10.64182241975886   16.51078592507872
H        10.44692239535267   11.27801264501350   16.57097991899426
C         8.10572659404575    7.86914270670154   15.86473840781154
H         8.08587287540804    7.37950194405213   16.84157419207244
H         7.60380016354168    7.21916250798912   15.15054689649002
H         7.53950896460983    8.79572713321538   15.94060503393661
C        10.03062167343496    5.80528210607413   14.37709221237615
H        10.24605225682939    5.11884323953129   15.19971693331006
H        10.60745905437990    5.49084734201741   13.50992072133104
H         8.97413428756913    5.72066601529759   14.13127561043760

