43
CSD_code = PEKVIN | q = 0 | S = 0 | Stoichiometry = C15H22ClNORuS2 | MND = 9
Ru        6.57095045174298    8.97813506624471   10.39264421627353
S         5.89403956851691    7.51605049108792    8.56760848431139
S         8.10657610003977    7.08589686950844   10.30841328256319
Cl        5.25414121514868    7.54736888603297   11.72219526842397
N         6.82865065158673    5.05946309811371    9.10541750020525
O         5.30861752032243    3.20304268243197   10.54572584488740
C         5.61193601897083   11.13314156403679    7.87897313472819
H         5.69981399065131   12.19157404324319    7.62764409286539
H         4.55925107856887   10.85985085425492    7.85923987605806
H         6.13461493796873   10.55612905588419    7.11854569840600
C         6.20334433831862   10.88921002529582    9.23413240591265
C         5.38968485824574   10.92090967733949   10.39360774561547
H         4.32818900018207   11.12332938181635   10.30175599482489
C         5.96808233067491   10.76419069749048   11.67319402725368
H         5.33301891620298   10.83060251454359   12.55198526622433
C         7.35629466449628   10.56948723676551   11.83824451779463
C         8.15593147141912   10.51017944463278   10.66478276622882
H         9.23044677355041   10.39157571891408   10.75487151595834
C         7.59807641573886   10.70747696147749    9.38513865526274
H         8.24194277194709   10.74699068710419    8.51389739526533
C         7.95874980373849   10.41261087463163   13.21463826054372
H         7.17063669060701   10.60692394606345   13.95147365383878
C         9.09157837037539   11.41492500964579   13.44770602100257
H         9.43092481165553   11.35183749901607   14.47860057596582
H         8.75123403382462   12.43129618747678   13.25808152653309
H         9.93960059571457   11.20616848161652   12.79998396151859
C         8.44432370762921    8.97287729733455   13.40822266310104
H         7.62655333118154    8.27569615194322   13.22338540627209
H         8.80098311560092    8.82701149517083   14.42475839352403
H         9.25378197401579    8.73999872674269   12.71885369569694
C         6.92759104157255    6.37088620783896    9.30165316045582
C         7.47923115927416    4.13181364263829   10.01128691326238
H         8.36666532498520    4.59704439897753   10.43842906974884
H         7.75952655387797    3.24107137592503    9.44359089536251
C         6.46965325804737    3.76623720652724   11.11099986972196
H         6.88354709162432    3.01589973811265   11.78519825770899
H         6.21696819058918    4.67630522818433   11.67537442066156
C         4.68113308919040    4.11208755916025    9.67165840467329
H         4.39616888806874    5.02666803206218   10.21263151630882
H         3.78863247856575    3.61410535140315    9.29163398970993
C         5.62767427097317    4.49263229503783    8.52214882595072
H         5.91219547547295    3.60206886782829    7.95616243892642
H         5.16124366982102    5.22142947010285    7.86041039115904

