101
CSD_code = PEKWUY | q = 0 | S = 0 | Stoichiometry = C42H54FeN4 | MND = 4
Fe        0.19462968880497    7.03892694696260    2.89223432229831
N         0.54516563203393    4.81797680610642    3.04839047632934
N         0.17612186083134    6.50617352678022    1.18855286015727
N         0.88876243371920    8.95404726846876    1.71510027953459
N        -0.16156865725892    7.66866415097983    4.31494885911540
C         0.40696778628927    2.76393237290844    1.66168115271255
H         0.74214716061807    2.26355549335250    2.56759818877929
H         1.10042140909689    2.53188845416127    0.85453422095179
H        -0.57414996727115    2.37550771821560    1.38987575549268
C         0.33706308143250    4.24810142622726    1.89146260131546
C         0.09427099129755    5.15268725325367    0.81762386706061
C        -0.15995757710360    4.75150900171394   -0.48482948854194
H        -0.26448119281502    3.69997406064308   -0.70105049411906
C        -0.26397085223881    5.68367428138416   -1.50344960230922
H        -0.48422057310841    5.38322450300775   -2.51492418525221
C        -0.00119437524386    7.01148219458026   -1.19275697825035
H         0.02697702051725    7.74647627101817   -1.98119699772509
C         0.25155967572343    7.40345241256931    0.11071807266932
C         0.67304837104560    8.72937012418784    0.45317395628734
C         0.89507191200411    9.76016167395086   -0.62115115682687
H        -0.01203183849203    9.91084611650096   -1.20483168728454
H         1.18539374746173   10.70721961052421   -0.17090956752717
H         1.68437616058902    9.43721473430135   -1.29920163735672
C        -0.40819622417221    8.34610526155148    5.43748448793777
C         0.64886771701435    8.97327171398811    6.14904418319879
C         0.37006647652750    9.66393346318510    7.31084501530994
H         1.18209498083433   10.14077106919906    7.84336001084730
C        -0.92262887844885    9.76493567228432    7.81368912415036
C        -1.95671797742501    9.16379533197014    7.10659483895331
H        -2.96953059967708    9.24690476363499    7.47759486180310
C        -1.73192348552171    8.47048667416910    5.93353780855440
C         2.04125662413357    8.90793633769171    5.60827788254911
H         2.76825969727872    8.82032874363208    6.41320666534169
H         2.26225077964195    9.81273056148869    5.04113638189302
H         2.12887299451931    8.05773811977964    4.92907930444817
C        -1.19693545110330   10.53697941988817    9.06775379060195
H        -1.34900428884110   11.59111185064543    8.83097223920944
H        -0.35856143988297   10.46656977417741    9.75733084913836
H        -2.09388187894849   10.17039396817695    9.56157341221796
C        -2.88060364214840    7.87078081337388    5.18058800039522
H        -2.51675597134999    7.38248254657327    4.27341464512919
H        -3.59297074219400    8.64755435422824    4.90358578606578
H        -3.40564562581009    7.14073431166030    5.79479116760724
C         0.87315482807340    4.09736112169550    4.19865853947859
C         2.18808846059490    4.18432401153173    4.68781109121529
C         2.53385545426307    3.44750386147971    5.80835774037706
H         3.54494166920475    3.47720127732987    6.18235506876462
C         1.59886828872749    2.66616553583446    6.46316745325974
H         1.88687886370620    2.09155176702007    7.33127430888200
C         0.29146795747299    2.64263682221910    6.01835954404244
H        -0.44066616616138    2.06060490056795    6.55768909126883
C        -0.09222277237306    3.34866030720335    4.88844600961599
C         3.18436522174657    5.06604610914331    3.97052306820672
H         2.61574539820849    5.91661876533060    3.54889372750810
C         3.83019931678484    4.30566198503624    2.80832278685447
H         4.35143792760241    3.42413631234225    3.17804102611513
H         4.54708870397675    4.94199181180476    2.29337706348005
H         3.07763874067312    3.98702003807431    2.09190756891837
C         4.26341037516925    5.61977012351939    4.89908803813933
H         4.84004069277420    6.38389234676636    4.38321205127931
H         3.81494854810554    6.06292693022106    5.78492983401091
H         4.95392278170468    4.83817112367564    5.20823827089308
C        -1.54414142423776    3.38568633932443    4.47146864529563
H        -1.62008967294680    3.90460043319845    3.51090058046409
C        -2.32319378999535    4.20668763521411    5.50248592142131
H        -1.86665735129232    5.18839839858051    5.60397083308566
H        -2.30993415958586    3.71707202217135    6.47375696021783
H        -3.35820744831469    4.32752482627228    5.18887179771855
C        -2.14894905986067    1.98984372229091    4.31610581997463
H        -3.15855156734428    2.06403683835055    3.91670079034042
H        -1.55317453935616    1.38267640604599    3.63814347708928
H        -2.20249757613318    1.47788763321457    5.27362576193911
C         1.41474183758090   10.15324275169472    2.19937666981861
C         2.79760826973919   10.38846808713745    2.13818675421450
C         3.30385796573602   11.55868663079069    2.68342942729199
H         4.36583282026252   11.75029152432229    2.64243493374528
C         2.46969767731201   12.48896104578323    3.27194811134451
H         2.87741103324987   13.40197183660029    3.68059727508538
C         1.11015982170985   12.24399847698980    3.34217891175949
H         0.46992577241958   12.97524038640195    3.80933504695282
C         0.56372280278066   11.08114738955785    2.82379082185553
C         3.73752090466570    9.37427078136958    1.52570637098148
H         3.14588481842757    8.53918206601110    1.13707233012112
C         4.53858523739243    9.97803046552753    0.36996185691111
H         5.20926615499022   10.75562233658513    0.72744250281036
H         3.87555576026851   10.41671398024281   -0.37212859087192
H         5.13740379448315    9.20848557373788   -0.11344495209479
C         4.67738966270858    8.81566531626129    2.59612340624262
H         4.09676090767071    8.39091496387235    3.41080923706481
H         5.31683975088914    9.59746045619950    2.99947292287198
H         5.31140952899727    8.03926700909516    2.17164788841615
C        -0.91989585510039   10.80534702961195    2.89680923633849
H        -1.04386281121222    9.71324420838508    2.93650444884691
C        -1.62099733042767   11.32455265522738    1.63737215202924
H        -1.25154492168685   10.81640938423349    0.75194438840200
H        -2.69336184146774   11.15436407459994    1.70799204010081
H        -1.44707017909860   12.39325010774607    1.52185927060164
C        -1.57571206119462   11.41110138118295    4.13701770057903
H        -1.65933315680815   12.49240214633358    4.04999074701659
H        -2.57946292329312   11.00932876638047    4.25407898135786
H        -1.00631610456991   11.17060860959243    5.03095396750689

