36
CSD_code = PEKWOU | q = 0 | S = 0 | Stoichiometry = C17H10Br2MnN3O3 | MND = 6
Mn       -0.11815756174447    6.63516351921004    2.90509736392711
Br        2.07158674861622    6.77921020189163    4.04371725105741
Br       -3.69063846063492    7.33043912780642   12.29542555212221
O         1.28916850172986    7.31359749837841    0.42297104598451
O        -2.66380291065047    6.38734726665127    1.48452681946693
O        -0.53216532202347    9.50575742414132    3.34017416388257
N         0.22397017062917    4.57662098374725    2.83318826173467
N        -0.82505960386424    6.06150827877016    4.69311752702787
N        -1.32026227119823    6.64720901620704    5.77520371361807
H        -1.51708188063372    7.63803048331204    5.78514752439661
C         0.79126442940180    3.88115088087325    1.85097462111842
H         1.02957698151596    4.42243353721221    0.94400863646933
C         1.08359347300074    2.53266442874400    1.95322656369895
H         1.55019522762884    2.02260599179254    1.12631330752128
C         0.77417518815171    1.86210378880678    3.12828612416156
H         0.99464101743919    0.81184046713321    3.24050986323700
C         0.18191959431137    2.57156067414524    4.15442975920949
H        -0.07210827076461    2.09977809165063    5.08977486995417
C        -0.07833493030335    3.92759418481316    3.97494333054319
C        -0.66310848531335    4.76940156356530    4.99625011622659
C        -1.08413041565250    4.53563242213529    6.31411873688772
H        -1.05739921850602    3.60796825862561    6.84548716803693
C        -1.49655436947205    5.76779412360233    6.79392144146623
C        -2.01374114913212    6.14936888969412    8.09479347139313
C        -1.92465098022704    7.46676517704363    8.54909265674628
H        -1.44407667223578    8.22398020471703    7.94793208509839
C        -2.41742908775516    7.81807928776686    9.79010138631118
H        -2.34193330139180    8.83624770842293   10.13906057314642
C        -3.00589812393415    6.84962834106011   10.58776623370378
C        -3.10045140665177    5.53442991443054   10.16007203840978
H        -3.55931836103719    4.79059339925374   10.79261255333199
C        -2.60464099767816    5.18996191192879    8.91929000463713
H        -2.68798421673179    4.16985684065549    8.57905468749128
C         0.72738718797318    7.02312851537857    1.37994141330656
C        -1.67141380646048    6.46704434417436    2.06128769014629
C        -0.37823671640097    8.37810325225971    3.17428144452685

