42
CSD_code = PEKWIO | q = 0 | S = 0 | Stoichiometry = C21H13BrMnN3O3 | MND = 6
Mn        2.76752132134913    1.52638791491638    2.15113924303699
Br        1.50068064902154    0.90364322113471    4.17570575846601
O         4.78371327871204   -0.51920861534830    2.74427274588734
O         1.27921053398140   -0.52795356629042    0.68071791032894
O         4.17189016383461    2.30453342284059   -0.29382061181641
N         1.36427421036709    3.05944261088246    1.93923179821484
N         3.58452840991053    2.96334001999218    3.30110050123490
N         4.64562486816761    3.10566321985600    4.08623125482441
C         0.22620584826659    3.02976628731046    1.25056136142786
H         0.03526734183407    2.14187889341008    0.66103689016760
C        -0.69459191754457    4.06207395793496    1.27092087375088
H        -1.60359199309686    3.97907528877345    0.69774752907732
C        -0.42969774593745    5.18769964497086    2.03860022175871
H        -1.12950288387814    6.00810463384663    2.07742654334826
C         0.74807283628100    5.23131555385778    2.75792338342159
H         0.99850702746368    6.07867703450432    3.37557889869333
C         1.62218980096228    4.14936368125158    2.68857459743056
C         2.86117268977646    4.07943213849554    3.43201377174549
C         3.48938180085200    4.94940257340381    4.33761656478786
H         3.16880841460615    5.92776538448707    4.62810681232923
C         4.63323712863182    4.28872713466577    4.74947391580257
C         5.72332233772205    4.69082045057548    5.62787052078461
C         7.01907600399569    4.45408740734645    5.22147566125307
H         7.20661506883968    3.96590044453645    4.27517364910894
C         8.10638113442981    4.87827488423469    5.99250474825443
H         9.10879831879722    4.68386940859557    5.64242664352629
C         7.89549356125339    5.54650589369885    7.16598937088070
H         8.72924633578924    5.89507695932482    7.75760125459673
C         6.58703334230661    5.78727362574929    7.63320813769429
C         6.35749883156079    6.45477933147988    8.85498212125192
H         7.21053469395254    6.80104516290230    9.42038302570971
C         5.08788518062422    6.64976962833078    9.31946143977325
H         4.91973206164863    7.16139273359568   10.25528859125298
C         3.99240108513132    6.16388233225203    8.59074956832109
H         2.99481242632708    6.29292335279498    8.98333065558676
C         4.17980333529314    5.52224674846131    7.39780401952130
H         3.33004244736437    5.12712135191785    6.86339332978312
C         5.47504853739196    5.33941908611791    6.87011847235534
C         3.99931079100117    0.29149409676241    2.51877123895426
C         1.84754959540335    0.29558159875378    1.24328670800343
C         3.62271229813614    2.02529829231542    0.67859305051223
H         5.31940082947435    2.36060677534222    4.19802782895262

