53
CSD_code = PEKWOS | q = 0 | S = 0 | Stoichiometry = C20H26CdN2O2Se2 | MND = 4
Cd        0.00161300884212    1.05815581488510    3.38956707027042
Se        0.50053865663006    1.52242012505544    0.85591035047036
O         1.82137554197115    2.52836378820634    2.96183645748477
N        -1.47119658248392   -0.91126241089574    3.08493807852323
C         2.65614317669199    3.47034205613352    0.95977741721619
C         3.61278506799402    4.21695043424017    1.65121278562133
C         4.47231258500475    5.05001125006086    0.96308434571300
C         4.38617978333039    5.14867844410673   -0.41710285761554
C         3.43715810992772    4.41173517300753   -1.10905931753736
C         2.57528011043146    3.57576570466644   -0.42658069657209
C         1.76376415062899    2.60010945671436    1.73605515903882
C        -0.59036553431581   -2.06558769895428    2.90204425736446
C        -2.35230144468227   -1.10216655483466    4.23189775291317
C        -2.28664928389536   -0.70022548328359    1.89230029038601
H         3.66433454888158    4.13068293226999    2.72688126861779
H         5.21062884304534    5.62533921065890    1.50228867234403
H         5.05852780707572    5.80216735025319   -0.95364134535340
H         3.36948283802213    4.49167607984289   -2.18388447648834
H         1.82953738767858    2.99779035240889   -0.95663629390082
H        -0.20834199569818   -2.03810062144739    1.87859371498059
H        -1.15051167077992   -3.00607320803561    3.02975193047009
H        -2.99386433313081   -0.22825753099422    4.34421087244944
H        -2.98847387178989   -1.98979310397305    4.10403629117435
H        -1.77326848199205   -1.21338932584584    5.14743788541963
H        -2.92841998373076   -1.56741318762335    1.68407743856690
H        -1.64620932482430   -0.51883282242223    1.02697537573932
H        -2.91548176598248    0.17813159672337    2.03879851062461
Se       -0.50048029803999    1.52067871259614    5.92422748532579
O        -1.81440126205277    2.53106342356134    3.81622447112499
N         1.47158967748431   -0.91199860146582    3.69536809092718
C        -2.65511629739101    3.46956927288035    5.81728024157136
C        -3.60695184575418    4.22036882321436    5.12373692650927
C        -4.46830363676419    5.05260402940824    5.81057853212752
C        -4.38888327716343    5.14612527266721    7.19151976559953
C        -3.44470936771098    4.40494032904648    7.88558513364291
C        -2.58094009451088    3.56984810698014    7.20438065465039
C        -1.76062270996470    2.60031559395665    5.04232045849822
C         0.58993609267922   -2.06554775863635    3.87906894428046
C         2.35146795713821   -1.10335199168352    2.54754011811554
C         2.28815926724493   -0.70204861169065    4.88743773632510
H        -3.65352265111296    4.13784107502106    4.04753602355652
H        -5.20290823675595    5.63116523161760    5.26973916379462
H        -5.06263349910905    5.79900716430370    7.72705857435152
H        -3.38224797107824    4.48081751367569    8.96102613706413
H        -1.83899905229328    2.98847986125271    7.73607173869321
H         0.20785138821252   -2.03681682039254    4.90247360407199
H         1.14953479783056   -3.00649919399166    3.75226374444004
H         2.99408032191188   -0.23019725105483    2.43531677857450
H         2.98651830428501   -1.99192600020888    2.67422477773508
H         1.77149877771590   -1.21307333703038    1.63239526968305
H         2.92808345762478   -1.57057469491511    5.09573478509629
H         1.64855017785280   -0.51881196797768    5.75300314120813
H         2.91887263683734    0.17480399796835    4.74011676526101

