36
CSD_code = PEKWUA | q = 0 | S = 0 | Stoichiometry = C17H10Br2MnN3O3 | MND = 6
Mn        0.02607881792858    4.85467237607643    7.69624563232333
Br        1.39067479173934    2.94863143170478    8.48283359726112
Br        5.77913774033814    4.70176841187691    1.65897973580718
O        -0.44973894256211    3.45833141375530    5.16096298202533
O        -1.63625315224210    7.11967871020794    6.87972556912719
O        -2.29760051378737    3.44073186176156    8.79297998412705
N         0.59858099862131    5.79830398521928    9.46666641289924
N         1.77656444075866    5.66999003045055    7.15020775542416
N         2.55625340877210    5.67283371578417    6.07752891560317
H         2.24538608986645    5.25497098013647    5.21191299992056
C        -0.04971794604863    5.80914096348102   10.62852927996167
H        -1.03245092359305    5.35493546562937   10.64347933238355
C         0.48019068219536    6.35833685882615   11.78252545331750
H        -0.08930937089744    6.33251269632250   12.69721462254196
C         1.74461193687548    6.92904030996987   11.73972034689756
H         2.18717582923044    7.36036689916878   12.62415511890499
C         2.42683867709152    6.92762427006966   10.53908989074443
H         3.41392059210886    7.35229300303414   10.45349885821758
C         1.82589961451682    6.35304515397681    9.42219867958984
C         2.46408548302755    6.27238175742220    8.12617626718757
C         3.71865545004114    6.67301858408170    7.64346729915131
H         4.49470217899294    7.15985054556864    8.19494921288497
C         3.75227573132460    6.26794536369336    6.31895874161481
C         4.79741256635622    6.40408509530371    5.32088079095632
C         4.79463708855578    5.61905410126134    4.16746902809733
H         4.03251992885887    4.87390035066427    3.99856130121574
C         5.80279072198462    5.77462271947500    3.23427755764808
C         6.82474278087565    6.69150144572512    3.41785432860068
H         7.60152922699463    6.79593456288023    2.67701027617443
C         6.82873085049637    7.46413614676046    4.56674100497543
H         7.62024745645646    8.18077339232499    4.72242347328829
C         5.82789717853668    7.32722264010874    5.50927241461459
H         5.83567290755687    7.94483195444785    6.39291996601859
C        -0.25924068476392    4.01551393405467    6.14843672784672
C        -0.96091213012969    6.24543562988293    7.20131107695935
C        -1.39768950607789    4.01938323889300    8.37943536568815

