110
CSD_code = PEKXAF | q = 0 | S = 0 | Stoichiometry = C45H60FeN4 | MND = 4
Fe        3.23365366755321   12.40322575556992    2.65364277808630
N         3.54257072220205   14.04261747429546    1.24753630293173
N         2.54667022491847   11.76932020445711    1.13111638104522
N         3.57171272636658   10.05229226614499    2.82823365196186
N         3.28580290907188   12.73681780190844    4.21575862071288
C         2.53073788879344   14.98154029573058   -0.82727509356330
H         3.12691078879824   15.86201040496494   -0.59752842916041
H         1.47573849222773   15.25605572885549   -0.80303156887743
H         2.76463066091414   14.64776508494034   -1.83744736032508
C         2.79799560606107   13.89505745949143    0.17470608086909
C         2.22442948833155   12.60295898767161    0.04940851358120
C         1.43140352017923   12.17585697949730   -1.00555380077215
H         1.17522791675664   12.87145324590984   -1.78938643820168
C         0.98455284153805   10.86764118603260   -1.05810672110221
H         0.34812922469593   10.52823936008665   -1.85938233736289
C         1.43532682511608    9.98213410415739   -0.08432281322595
H         1.17052336306895    8.93893990606883   -0.15218260861424
C         2.23398205314889   10.41508026901965    0.95973796552959
C         2.87236950878797    9.51243638105508    1.87752450411506
C         2.80112709056368    8.02697844945160    1.64259402370003
H         3.49991724177519    7.51741898255369    2.30257527882905
H         3.05168844592504    7.78451263355861    0.61123489581837
H         1.79560886307335    7.66015087410851    1.84597105957933
C         3.14805767424934   12.75059064611247    5.54387219954892
C         4.27828203056354   12.58962082053297    6.38830876333479
C         4.09647323706120   12.60481281645192    7.75682694998258
H         4.94240142168091   12.48959567645029    8.41627330773407
C         2.83322737899025   12.75611300470493    8.30657125256945
H         2.71101831347846   12.75463695905360    9.37991756312287
C         1.72618207307404   12.90906232574381    7.48812600136007
H         0.75350406536973   13.02239840094151    7.94112003787199
C         1.85454232705899   12.91863053719367    6.11249918516875
C         5.62479332159711   12.41848923840090    5.73074128159355
H         5.46606881366518   11.78348971630703    4.85021969592672
C         6.66080847713692   11.74855540175077    6.62818913671052
H         6.27069747251809   10.81687826099500    7.03146053574939
H         6.95270759992176   12.40026500292477    7.44902507277615
H         7.55408453417027   11.51847713305330    6.05147169016070
C         6.12923154216000   13.78101947022969    5.23860926120780
H         5.44165229874443   14.18860909643946    4.49890903636620
H         7.10835340584573   13.67658759942075    4.77620976576517
H         6.21067988686042   14.48031758930424    6.06892095037790
C         0.67981943382802   13.10294433341503    5.18218748769461
H         1.04427977922973   13.69104798228524    4.32862124542012
C        -0.49726426447360   13.83609845771921    5.82128188835391
H        -0.16580164399791   14.74462860474936    6.31944317456420
H        -1.00358087098621   13.20466269432858    6.54820395440324
H        -1.22069961944646   14.10720093611659    5.05467461010043
C         0.22354836150290   11.75211112174490    4.61984440474570
H         1.04328454132633   11.29406068857095    4.06265316604429
H        -0.61869467657874   11.89275456463489    3.94520975639403
H        -0.08003374278816   11.08551559230294    5.42347532004152
C         4.22068086937506   15.24363424243288    1.50638575964680
C         5.54865479447691   15.38756905990194    1.07066546985430
C         6.19329598941031   16.59730079027506    1.27477105148467
H         7.20217443471328   16.73475095495009    0.91829765946827
C         5.56132584154313   17.64203065009807    1.92246617243940
H         6.07348966705847   18.58268850671002    2.06159509912192
C         4.27823053031500   17.47154549023759    2.40387947174989
H         3.79841276427598   18.28404855972336    2.92869447752244
C         3.59295786216898   16.28148067829546    2.21141008767860
C         6.24843305869279   14.23980212165096    0.37882655819073
H         5.72892092749072   13.31566604108255    0.66831895091776
C         6.16360732389732   14.39178752105334   -1.14263519966901
H         5.13040019752837   14.37358308471906   -1.47565936824375
H         6.69614491463128   13.57908017108317   -1.63303526877289
H         6.61019774132097   15.33465080620659   -1.45315517704299
C         7.71205228514252   14.12102475599169    0.80350944623820
H         8.13916891328678   13.20476163681721    0.40015020088080
H         7.79477065060676   14.10344368965393    1.88750698244423
H         8.30298981977133   14.95035386025177    0.42255295410592
C         2.20354804069215   16.11098087085436    2.77850472801277
H         1.87342679512163   15.08386992291626    2.57112351699963
C         1.21501731251227   17.08392093377703    2.13255093485752
H         1.20603242742585   16.96432977511037    1.05173672994354
H         1.48451595616716   18.11304779755520    2.35865696228024
H         0.21000908563771   16.90329520398535    2.50861530371223
C         2.22769348979978   16.29810426640847    4.29725194439644
H         2.88588866704744   15.56270414389371    4.75429621406055
H         1.22848576829311   16.17084922619940    4.70683892653988
H         2.58046510507658   17.29117804776345    4.56411001653842
C         4.38633520236159    9.33515774933491    3.70302105016735
C         5.77989372016944    9.45624108176854    3.53729219405819
C         6.62104857895297    8.77003633041754    4.39635455455324
H         7.68986239180354    8.82994378376961    4.26872919451018
C         6.11336327438836    7.99977804712551    5.42665532848588
H         6.78313560867760    7.46733818008442    6.08588044867776
C         4.74848531362605    7.92856815220276    5.61645643024316
H         4.35934919474421    7.34456483373993    6.43698995642646
C         3.86778525105927    8.58441222889807    4.76853291089931
C         6.31713488335037   10.32029637211607    2.41882220484648
H         5.63754122819982   11.19066714444893    2.32717655686242
C         6.29501355882543    9.55822368111778    1.08997212706535
H         5.28194527931246    9.26999317622788    0.82453494904021
H         6.90325917171364    8.65802108624133    1.16343539777528
H         6.69326277045714   10.18121600622599    0.29125582413523
C         7.72814639469973   10.83805787948589    2.68587369822376
H         7.78782817057768   11.30497423200247    3.66503668844440
H         7.99534677555275   11.57711374717052    1.93664863099206
H         8.45840366055268   10.03315885689805    2.63306399654037
C         2.38422321808749    8.51697241621502    5.04751296366382
H         1.85494844646074    9.06669690483772    4.26381678844930
C         1.87003286116784    7.07476968503998    5.05961143267025
H         2.13253736236068    6.55691476663410    4.14020610349479
H         0.78668498438047    7.06717717057388    5.16267072799499
H         2.29281795403859    6.51972789892128    5.89333218011422
C         2.08410995629145    9.19448856600358    6.38702377183052
H         2.42145939232181   10.22736943765637    6.37178625929466
H         2.59025469902312    8.68138490202600    7.20120159238727
H         1.01476622182255    9.17757436589715    6.58728585209800

