65
CSD_code = PELBEN | q = 0 | S = 0 | Stoichiometry = C32H28HgS4 | MND = 4
Hg        6.08746989549964    6.18343361606876    5.14741493908144
S         7.51622145015895    4.30663641617215    6.02807324020016
S         7.30278394023556    4.91233159944833    2.67044261862870
S         4.06011398043068    7.65369868751181    4.88523702195004
S         7.16835213123896    9.01986570809442    5.26604965188259
C         8.81786398668185    4.17707061534840    4.86737284322487
C         8.78502869198272    4.43095690313253    3.54176948949354
C         4.66933413831924    9.08045316799402    4.07807563513572
C         5.89534071054406    9.63747373815560    4.17697564539653
C         7.90124643323754    6.27862153965308    1.60226686752706
C         7.83639376187502    7.64225488051766    2.27167237830420
C         8.86704257201533    7.80370947794711    3.38654595594357
C         8.66028189103832    9.07173469998155    4.19970842972513
C        10.04271956764319    3.64359698434363    5.49869211335793
C        10.58508652075028    4.27720071165183    6.61197848398297
C        11.72689028099688    3.77882592588982    7.21031295368915
C        12.32964136518338    2.63537782706454    6.71367147710621
C        11.78198791417168    1.98869672586500    5.61815392739407
C        10.64470673282478    2.48737599939038    5.01157425096837
C         9.96670148953426    4.27820161055606    2.68231625952197
C         9.88099435489710    3.54850331146877    1.49786323482245
C        10.99065205686009    3.39277148956855    0.68913558740482
C        12.19752989633714    3.97241203028397    1.04359576112721
C        12.28676018633445    4.71470662332018    2.20994766904948
C        11.18074546496944    4.87259816585672    3.02291334241318
C         3.61424174851454    9.72833354221604    3.27173894555839
C         2.93125341682124    9.00074429400600    2.30262352861334
C         1.93886317990129    9.60094306407338    1.55089389062615
C         1.60762974264381   10.92766182997106    1.76893553520668
C         2.27015682140192   11.65096039564387    2.74680333255509
C         3.26840661603049   11.05755461978180    3.49598904849363
C         6.27364367777507   10.84348466605848    3.42842286478205
C         6.86795437513929   11.91912404138396    4.08609776703417
C         7.21963929978641   13.05905191565958    3.38852404495676
C         6.99491860796397   13.13776698881494    2.02417056423990
C         6.42085386127942   12.06623447610005    1.35959981640507
C         6.06631428596171   10.92453559524958    2.05225015128520
H         7.23840148647367    6.24770841816821    0.73785896554103
H         8.91473937700669    6.02642510616614    1.29210423398479
H         6.82476973125433    7.78455872446523    2.67004439923087
H         8.00148397781284    8.41294762216646    1.51323642240376
H         8.82441318238803    6.94487630940575    4.06696253636980
H         9.86989901174527    7.82716692695744    2.95046380268386
H         9.48164542654051    9.21123857034763    4.90215652124488
H         8.57292277974834    9.95189455164216    3.56357975337276
H        10.10617332268343    5.16385458096628    7.00179196191155
H        12.14440626993068    4.28220618906702    8.06994954156258
H        13.21920627225525    2.24394823190731    7.18459324750489
H        12.24026109897488    1.08848801790672    5.23593970280323
H        10.21110461795513    1.97709552162488    4.16452989200002
H         8.93908538652676    3.09437144626858    1.22543848333942
H        10.91312219171307    2.81490900397827   -0.21998682865249
H        13.06441273967705    3.84903945133935    0.41199827884590
H        13.22299178830837    5.17634136810186    2.48705080694798
H        11.25323361461772    5.45572375840221    3.92897437468435
H         3.18661657118564    7.96321897425864    2.14201270655497
H         1.41928837563021    9.02942408189882    0.79583940465268
H         0.82887901619928   11.39461453234736    1.18428538863505
H         2.00568264363259   12.68189025408116    2.93043099930181
H         3.77707625535730   11.61781291989728    4.26621543389745
H         7.03894991361206   11.85659115617009    5.15124176242900
H         7.66900579566581   13.88960646414845    3.91263034420096
H         7.26893522732292   14.02913013322730    1.48011560498523
H         6.25097967016740   12.11843629357532    0.29431322255859
H         5.62344920861050   10.08957750723089    1.52981976993024

