60
CSD_code = PELCER | q = 1 | S = 0 | Stoichiometry = C24H25CoN7O3(1+) | MND = 6
C         9.68897991478733    6.27339251746322    5.20250880272158
C         7.69206296422476    2.47035093991548    5.51321460673691
H         8.03541640577012    1.80002723579909    4.72696978564572
H         6.61256115205780    2.56991073597095    5.43808046138385
H         7.92995822558469    2.00632764784761    6.46967036014939
C        10.42161638811017    5.08169185442430    5.28554521663209
H        11.49948457024754    5.13001406859896    5.27265647087102
C         9.76329864508929    3.87697921057608    5.38195835561481
H        10.33591579999607    2.96378927406535    5.44804283345116
C         8.36784836110889    3.80301603734311    5.39862508949649
C         7.63356249004449    4.97129293066965    5.31446099943320
H         6.55576740913282    4.91091773878257    5.33194080626255
C         8.27698911985745    6.20511040678821    5.21503514294166
C         6.39613874264365    7.64146792007012    5.07540911264503
H         5.74970346370828    6.76851391963248    5.10924587978290
C         5.72758408036501    8.88881377045617    4.98819033236918
C         4.31558810749488    8.90920842939538    4.92936809715458
H         3.78338038859427    7.97015074847578    4.94692030942390
C         3.63403292392384   10.08854857856514    4.85230982111065
H         2.55686102615094   10.09845721556190    4.80850957182291
C         4.32656608738217   11.30717730420721    4.82844078528781
H         3.76068201830551   12.22247182605739    4.76508496763947
C         5.69757832957645   11.33024652967803    4.88351554918582
C         6.44647751533172   10.11228038157535    4.96871283652471
C         5.83071771475794   13.70450870102475    4.80580725826067
H         5.24102489504591   13.80819667755424    3.88973075839248
H         6.62231052746015   14.45232689060170    4.80916227294508
H         5.18309991340687   13.86117229726013    5.67389481690122
C        10.18133683788578   11.48223633443195    5.12262103814899
H         9.22959927941863   11.95466067171453    5.26956306089640
C        12.32619220990320   11.18940059430549    4.81975733287784
H        13.35833188115421   11.44418360237125    4.69973849012965
C        11.69283975674398    9.98344572873061    4.82148252637674
H        12.09212174998586    8.99757553292502    4.70095166669108
C         9.19412783382042    7.73692655043121    2.35955971785766
H         9.45932960132461    6.75112933414841    2.68797506823182
C         8.73307966444784    9.40676835728744    1.02951079529119
H         8.57495996213463    9.93546866624803    0.11304146796864
C         8.65292825442698    9.81745706643717    2.32534299017163
H         8.39577029643755   10.77908601151458    2.71994867146135
C        10.00591853675420    8.46846436261360    7.74126852677327
H        10.96296922850884    8.15685084031372    7.37317355013119
C         8.37843315541485    8.94865360391002    9.11537974150295
H         7.86567831398316    9.08082621075685   10.04496500476220
C         7.96159050553801    9.12776963195480    7.83105149359836
H         7.00549784117987    9.45261279188707    7.47434233957163
N         7.68292569103067    7.46197869699867    5.11798618768247
N        10.35794880707545   10.18273268523492    5.01151342695320
N        11.35327471929936   12.12562534740971    5.01091594288193
H        11.49248021852720   13.12290594652968    5.05732331677835
N         8.94171059873298    8.76454428956957    3.14396315179272
N         9.07865673235057    8.08967548155634    1.07073927105515
H         9.21927136388133    7.48734592619073    0.27445614611197
N         8.98783328729691    8.82447991118394    6.98502279003042
N         9.67296333131493    8.53111558078526    9.03861872861648
H        10.26761388367679    8.30031093909316    9.81933988520915
O        10.25429995864285    7.45052291084157    5.10013882802318
O         7.73263578938331   10.20735927516437    5.03429755829183
O         6.47966560778753   12.45643787611449    4.86439481619956
Co        8.97030792178102    8.81588745298338    5.06470516714642

