44
CSD_code = PELFEU | q = 0 | S = 0 | Stoichiometry = C19H20N2O2Pt | MND = 4
Pt        8.47233705229935    6.18216799213801    5.69244164234638
O        10.25285486826831    7.10140386328682    5.79978370548937
C        10.91801848027900    7.65515362484657    4.86131709915425
C        10.51639672731713    7.67141088515429    3.48994709902657
C        11.34375933946350    8.30620026990437    2.53780521997830
H        11.02584410873201    8.30824719605020    1.50372606072199
C        12.51597463882325    8.91155976117140    2.89279597182915
H        13.13277765402564    9.39420024415560    2.15040669953341
C        12.91496020200341    8.90138088253452    4.23701196618560
H        13.84191482859712    9.37992395210729    4.51900326839451
C        12.14625181903191    8.29431760374588    5.18770163030306
H        12.44214388549892    8.27823917365497    6.22541253424166
C         9.32179697166605    7.06741655225574    3.03290695294913
H         9.18119536398637    7.14362986840231    1.95115748181826
N         8.38989143344278    6.45353902196405    3.70033252228214
C         7.28151874985346    5.96783244846664    2.90003157424486
H         7.61668263881053    5.81306869611044    1.86617220758528
H         6.49914170105377    6.73833164106278    2.88029668052901
C         6.66069727718838    4.65883342547176    3.40697454725462
C         7.73379739366490    3.59185080328489    3.62976557238607
H         8.26730925961824    3.39631331755783    2.70294591258725
H         7.27775853407331    2.66575849752405    3.97078104585573
H         8.45704880852058    3.91925443108359    4.38299505836427
C         5.66481815460666    4.17028541257107    2.34926170369193
H         4.89164862335816    4.91446867163857    2.17139954303493
H         5.18664680471510    3.24946047927082    2.67343726416018
H         6.17424511437931    3.97348969802933    1.40939168443167
C         5.87871158621393    4.93073162275398    4.69915898894860
H         5.20680000086589    5.78202708814480    4.52539626108683
H         5.25186259228000    4.05524278551655    4.91301904043953
N         6.70987709063808    5.22342148456237    5.85227129113571
C         6.23021181131262    4.81619040552089    6.99034822985980
H         5.26884158812625    4.29605571157717    6.95920160966507
C         6.76049073778198    4.94188482725095    8.29555746704367
C         8.02572595960754    5.54991150248009    8.56331732093557
C         8.44862402555610    5.60261336189953    9.92052545317253
H         9.40523235550345    6.06302610953972   10.11433780323846
C         7.68293482196213    5.09799839061001   10.93161458583614
H         8.03286949443487    5.15582576948166   11.95237818763422
C         6.44285783247888    4.50169120436518   10.66160934896314
H         5.84716810920353    4.10554498207947   11.46955145901075
C         6.00216495720365    4.42850969400533    9.37052044889870
H         5.04709432912299    3.97046756118448    9.15043046332067
O         8.79480227443041    6.03571908558446    7.66765939243107

