44
CSD_code = PELFIY | q = 0 | S = 0 | Stoichiometry = C19H20N2O2Pt | MND = 4
Pt       -0.83502939569091   31.15045929321800   10.60036804157706
O        -2.23711847408218   32.28563973410279   11.47856201159496
O         0.11230139699543   32.91868056677323   10.57106108414967
N        -1.99299180251790   29.51361196007180   10.74787526593764
N         0.71009504162077   30.24194477043274    9.67884506021145
C        -3.41174065041482   31.95004962495739   11.85009360539549
C        -3.94678608646691   30.62987240623143   11.73722257595060
C        -5.26787516509502   30.38295541102001   12.17035140579515
H        -5.65923021081266   29.37890845174512   12.07460283683786
C        -6.04818918382784   31.37201809482747   12.69934675254297
H        -7.05657716683591   31.16422158239405   13.02272602026510
C        -5.52647042137813   32.66773184222296   12.82132663275579
H        -6.14192323810635   33.44982345644419   13.24246530054495
C        -4.25400342058185   32.94811855255752   12.41374431741805
H        -3.83957055390688   33.94083062465540   12.49967926104412
C        -3.20741921444720   29.54533934171046   11.20960335892248
H        -3.75912259371776   28.60113010706798   11.20769494080791
C        -1.52618730168243   28.21275212994854   10.31268337344268
H        -2.38562976772810   27.55149593223301   10.14035017509189
H        -0.92454757115067   27.76868293600381   11.11645573602048
C        -0.67817544282712   28.25060541518860    9.03268721849380
C        -1.36849986648794   29.07071821213354    7.94139646483682
H        -1.48991003098044   30.11118536396915    8.25664377722146
H        -2.35210282993740   28.65993583890363    7.72676048803103
H        -0.77688490568577   29.05487828528989    7.02932079899132
C        -0.48860849809342   26.80914302278051    8.54829602424985
H        -1.44802745236252   26.36370608044021    8.29778920823868
H        -0.01712093101892   26.20040735041281    9.31661864277408
H         0.13719767805659   26.78516622438438    7.65975929064345
C         0.70694302917190   28.82632485822837    9.35598433322513
H         1.12421255455182   28.27092225041096   10.20674759993796
H         1.36265349586555   28.64742593584001    8.49394105951382
C         1.78155150702013   30.88156628337471    9.31172237035227
H         2.54938302328710   30.29690313322392    8.79753383254233
C         2.12780013592596   32.24333314539639    9.47227041401869
C         1.26637009091650   33.19448078608968   10.10055580503908
C         1.73380548724362   34.53461555328914   10.19514482378627
H         1.07664356642495   35.24399873842804   10.67435015153401
C         2.95084658133899   34.90710218045041    9.70169117245301
H         3.27520043033120   35.93426641933223    9.78732715165765
C         3.78901287554974   33.96976618455376    9.08059800978737
H         4.74773343121697   34.27677429720838    8.69194576265174
C         3.37818986240646   32.67101000558030    8.97443928512424
H         4.01650198791314   31.93849761647241    8.49871855858926

