35
CSD_code = PELFAP | q = 0 | S = 0 | Stoichiometry = C14H15N2O3Re | MND = 6
Re        1.57234843154557    2.80230365060078    0.20992807355214
O         1.23472858155975    3.73339964240218   -1.12887761845321
O         0.53429641362610    3.02380182014194    1.49347285523146
O         2.11332816982147    1.23123170613766    0.08856203778816
N         3.99122735340766    2.82627022387991   -1.26432272367051
N         4.48253403688069    1.84051248480117    1.28074549121090
C         3.85450954464073    3.33449458512039   -2.47448133426480
H         3.08720008557487    4.09083577958429   -2.57529212017077
C         4.62137997247153    2.93499908891338   -3.56066207311090
H         4.47010535774516    3.38034334656107   -4.53097670203893
C         5.57178046384600    1.94557162592558   -3.36357013608370
H         6.18148920796778    1.59362306734281   -4.18296531051559
C         5.72252493537741    1.41295456689596   -2.09613015691584
H         6.45424098106470    0.64304198259939   -1.90273982595375
C         4.91483558535361    1.88387805518966   -1.05731205348300
C         5.07025705639659    1.33104501082719    0.28269713750558
H         5.70159856947088    0.43519160413253    0.35017171290703
C         4.61927096545990    1.36528077588896    2.56620260251266
C         5.85212307242942    1.00460510694366    3.11502896695070
H         6.74503417689002    1.07743213601049    2.51013636905743
C         5.93551763473952    0.60687836164082    4.43415602570257
H         6.89798926474744    0.34671155558022    4.85179074703737
C         4.80084596235732    0.53335344449507    5.23457933504010
C         3.57426177711522    0.88706955811890    4.68004425131470
H         2.68206316804121    0.83344358309387    5.28688218177712
C         3.47960279100542    1.31688366072620    3.37323849005080
H         2.52530927445293    1.58017776128629    2.93782270871924
C         4.90047078921748    0.07071670678722    6.65549895951613
H         4.94149984908688   -1.01854595387490    6.69054852471202
H         4.03751251885052    0.39532650163257    7.23134831466863
H         5.80413362574381    0.45346310244074    7.12529758271114
C         2.87991447991549    4.29320190736719    1.21293632457008
H         2.31558181096459    5.22549021506485    1.22821327521223
H         3.80553176807787    4.42154268900753    0.66100564332434
H         3.10315232415781    3.98267064673728    2.23062244358651

