51
CSD_code = PELLAV | q = 0 | S = 0 | Stoichiometry = C19H21AgN4O6 | MND = 2
Ag        2.82649906312515   37.32907325267966   11.02752816313476
O         4.54667507688781   31.61444773482733    9.17688796014519
O         3.47875646168855   32.58340830414560    4.86277345441857
O         1.98614517541023   39.52008055105276   10.25169207844826
O         2.49495954189369   39.04770975995920   12.34046731562418
O        -0.72832248466671   27.96737324816658    4.70998190092277
O         0.60403931959424   29.34789351029630    3.55246478395617
N         3.62599002218614   34.44321541722670    9.84461111985470
N         2.87993950618574   35.77977369310356    8.30725118169368
N         3.99109331678108   32.11687643910086    7.01871464657795
N         3.12412134450958   34.23104501954123    6.37342750879672
C         4.11324042845986   32.41572073656972    8.37701423873313
C         3.52771557371263   32.94398513225536    6.01600277351051
C         3.20085778769571   34.61118770897140    7.68072295932711
C         3.67687646116376   33.75565106291931    8.65443077038018
C         2.64513463295961   35.08922111178560    5.30597994555923
H         3.28173586433015   35.96575955910284    5.19898563141515
H         1.61407704738350   35.38893145667525    5.48280506184980
H         2.69230366918247   34.50377229641968    4.38829906457886
C         3.14386127793926   35.67225122715797    9.64522408617523
C         4.03222290338070   33.89411799601410   11.10644017965539
H         3.89009907884890   34.65272994956599   11.87728838211175
H         5.07978258502544   33.59566314640065   11.06511367502536
H         3.43710253091713   33.01058492702419   11.33818918571529
C         2.08337808201479   39.84093638652041   11.45123985838160
C         1.70964770504280   41.24714351166847   11.88322515138201
H         1.23138431811424   41.21816279532629   12.85813503220044
H         1.05418001569149   41.70113248199745   11.14594040318571
H         2.62055917610568   41.83730078816346   11.96254327848271
C         4.37537471238203   30.75943148676736    6.61335243944431
H         5.17546709283959   30.44503886258111    7.28590884129581
H         4.73473409220277   30.81283031012187    5.58502573687249
C         3.19746447635735   29.82542233182012    6.71997978002458
C         2.95845094537444   29.13460758273638    7.90295159379881
H         3.63566539138911   29.25916103133664    8.73467705056100
C         1.85851106013592   28.30022045551588    8.01684550646795
H         1.68274821881936   27.76487950358021    8.93764962393794
C         0.98899837259531   28.15273567989492    6.95324710196475
H         0.12596781192256   27.50762716487284    7.01722648592052
C         1.21838264346402   28.84495285000623    5.76629718155745
C         2.32383043926791   29.68215030772927    5.65224411925125
H         2.49719288023917   30.22276813280129    4.73497822067108
C         0.25913536468359   28.65917315402022    4.64976435585608
C        -0.26660313204767   29.21523981107327    2.44016376743433
H        -0.32516380109897   28.17093152171408    2.12614491626904
H         0.15521443274479   29.82978562793841    1.64914006522419
H        -1.27053369481154   29.55789073306120    2.70020063550885
C         2.33467981982416   36.98604040382241    7.73069727515269
H         3.00419969057090   37.39566892927119    6.97671110465390
H         2.22231985788488   37.72507884500646    8.53102665617728
H         1.35490784326757   36.79981606967084    7.29368775063368

