20
CSD_code = PELNAV | q = 0 | S = 0 | Stoichiometry = C8H7NO3W | MND = 8
W         0.27639684552858    8.53008102740405    6.05674736616736
N         0.37180686931434    9.75107149167379    7.35576495377458
O         0.48030691424772   10.57687924208495    8.18021877503006
O        -2.82369905314951    8.89003151949178    6.20693676809388
O        -0.06972255671642    6.38621475253153    8.30551197700586
C         0.78580446055328   10.85385226554165    3.49086565390911
C         1.04841217713918    9.49252248906105    4.06725303281572
C         0.36511291946960    8.29520785806538    3.72107979166785
C         1.04463724179284    7.19787970896602    4.30484443782505
C         2.17629482106021    7.71153999223123    5.00233047268797
C         2.17668045357153    9.11923611533770    4.85113503470955
C        -1.68991706611049    8.73446408730497    6.16054930379977
C         0.03891892292300    7.16691478904976    7.47516864227547
H         1.13168371341298   11.63795732677456    4.16289046317857
H        -0.27679222241197   11.00058105400815    3.30260541401331
H         1.31580127457601   10.96212303159826    2.54188873383404
H        -0.45800928669542    8.22664213745186    3.01920315832721
H         0.86185228185650    6.15212849171072    4.08625543526122
H         2.98225590022935    7.11853098046082    5.41509584762293
H         2.97537538940873    9.78734163925171    5.15255473800056

