24
CSD_code = PELNOM | q = 0 | S = 0 | Stoichiometry = C8H13ClOPd | MND = 6
Pd        4.55855653329609    9.87173625826311    1.56678413867253
Cl        2.72171155394444    9.70973982507513    2.83321892162591
O         5.23913398457103    8.28373088103396    2.48487301068686
H         4.57921420820848    7.99561291833477    3.12750288439296
C         3.65809766788509   11.20630009760468    0.09397845100809
H         2.58921575697710   10.98715971343066    0.10928297420231
C         4.16926824113461   11.94649113284392    1.13335794222386
H         3.47238089487345   12.30258805488183    1.89439733743374
C         5.50821617097449   12.65007147107895    1.15680316040488
H         5.75454031489416   12.85192704916073    2.20481962822322
H         5.41486350019181   13.61968236875770    0.65552893710957
C         6.66497350133433   11.84540302939783    0.52731089054425
H         6.71062867065210   12.01058405192141   -0.54928466793560
H         7.60333493235825   12.21236808720773    0.94788422711188
C         6.55382805325911   10.36220048793843    0.80198207552865
H         7.23406913179357    9.96619376614215    1.55614493055206
C         5.94975452448457    9.46067552316331   -0.03984718448333
H         6.21245373368335    8.40868171452147    0.07563788965140
C         5.22563807239981    9.78784059543264   -1.32563857168263
H         4.59749260003490    8.92721703231633   -1.57810303729398
H         5.95766303133350    9.90100982036090   -2.13235358277590
C         4.33173166871632   11.04453946777571   -1.25253987951105
H         4.90716753795748   11.94308857602679   -1.47719192147872
H         3.56136571504168   10.95915807732873   -2.02164855421092

