45
CSD_code = PELNEC | q = 0 | S = 0 | Stoichiometry = C15H26ClOPRu | MND = 8
Ru       10.51460803099833    3.58638675176550   10.76345730440976
Cl        8.54042928884244    3.06369632865278    9.57114302981420
C         9.99210884445699    5.32719542425364   10.99799797727214
O         9.64610934214454    6.37805491337817   11.31183756266945
P        11.63911073373408    4.06931069903846    8.78479315682677
C        12.85338263798447    6.41849380452305    9.63977926787559
H        12.15649919757258    6.99671579453776    9.03969314647169
H        12.39977322128634    6.24188202001841   10.61552226923327
H        13.75635935260597    7.01082995359364    9.77986126273841
C        13.19422156287912    5.08661369548805    8.98013117819086
H        13.60103036724020    5.26962244999631    7.98093128181031
C        14.23376162247168    4.35682837967190    9.82372663229565
H        14.53893291064577    3.41593903995226    9.37224315039516
H        15.12030331461743    4.97948566153274    9.93615321777168
H        13.83059195334488    4.16122518966718   10.81544131204839
C        11.05817337740024    1.59052640339397    7.63456553690697
H        10.27035025747667    1.65031273717836    8.38546197982935
H        10.63246353607776    1.89736501674666    6.68190456570142
H        11.37510280509259    0.55313883463066    7.54018513701415
C        12.24747597285374    2.47386543840845    8.01020279758542
H        12.78180987414624    1.98703146910216    8.83732634651620
C        13.20619869743683    2.58816026933117    6.82712026545541
H        14.03976927629062    3.25559698295432    7.03006954666534
H        13.61295649990210    1.60115376974948    6.60839060034523
H        12.68447570523854    2.93002304388373    5.93742814727343
C         9.62285167780056    5.86010171344826    7.94469958740260
H         8.94225430427391    5.33242545878864    8.60988355033975
H        10.06296124599188    6.69628922554008    8.48273406706782
H         9.04187197383297    6.25828521648333    7.11450282122361
C        10.68938538529457    4.90744318385315    7.40619516889476
H        10.16335217364839    4.07204582171055    6.92713563436442
C        11.54426986089243    5.63128267666422    6.36559011979168
H        12.35411954756885    5.01636325062960    5.98639791727366
H        10.91128753909725    5.90734499511083    5.52354344475742
H        11.96492362010155    6.54625438162943    6.77531697968431
C        10.84822317902695    1.44794801287082   11.42049664210152
H        10.73002808128254    0.52030935911790   10.87723175210117
C         9.86298295551232    2.04200205009672   12.26038676121847
H         8.85905964439177    1.66778361130700   12.41088089331535
C        10.46617547973178    3.09641956888290   12.97516753244674
H        10.01058985823345    3.66663852653504   13.77385876623168
C        11.82612210059998    3.18455600613004   12.56393466093228
H        12.58647420643907    3.78669447032463   13.04282959300892
C        12.05854272882100    2.13672395311323   11.62883864431998
H        13.02882605471372    1.83803444631253   11.25450879040516

