70
CSD_code = PELQUT | q = 0 | S = 0 | Stoichiometry = C30H22N6O9S2Zn | MND = 5
C        10.76882334223301    2.68359055194727    6.67572838054714
C         9.42024384805037    2.98613359310946    6.62475962339337
H         8.75841185104263    2.56319296141128    7.36552867906399
C         8.92794687882055    3.83994901664822    5.63425213762622
H         7.87098566316373    4.06211096688354    5.62053762137931
C         9.75011285213654    4.39408551843316    4.68569979221581
H         9.35551403564512    5.04845837853111    3.92374127860807
C        11.12978480326161    4.11040180460398    4.69664148316455
C        12.05217883119373    4.62357502802757    3.76064396333573
H        11.70049264106203    5.28119322836489    2.97841319528796
C        13.37376436585628    4.27608243672496    3.85591441918872
H        14.10261072212153    4.64627398325804    3.15254902258120
C        13.78939388644734    3.41909049125086    4.88635335477445
H        14.82587216270519    3.12373806448184    4.97301016058131
C        11.64774726516311    3.25359263117572    5.69930653208042
C         9.61604647952212   -0.13891963177451    8.12605065869050
C         9.83645469192169   -0.74719025525839    6.90217923326829
H        10.74436385984978   -0.53410675303709    6.36129616501355
C         8.88514897097127   -1.61537121707445    6.39769095012704
H         9.01849499152450   -2.11056322361385    5.44779144284830
C         7.72811929702287   -1.85260098982466    7.13188691897782
C         7.50417288195738   -1.23685256144504    8.35813435208222
H         6.59200334697911   -1.44454649857979    8.89685667457520
C         8.46141310948195   -0.37021148795077    8.85350984811034
H         8.33285235163259    0.14165264393251    9.79389917206707
N        11.38727885300419    1.86478327213954    7.54937639021191
N        12.95686533821598    2.93041184214148    5.77596006811665
N         6.73135266347081   -2.76061072920952    6.60581668636877
O        12.00137835428980    0.27147831540750    9.19943762444945
O        10.16434109686079    1.80465788300273    9.78499056952568
O         6.96778309334912   -3.29924016839104    5.54748068760921
O         5.72414368412284   -2.92476633369519    7.25713528887361
S        10.83409035502291    1.02165225628399    8.77846253818709
Zn       13.29261743261617    1.63059231911895    7.46002272923264
O        13.01423404733930   -0.35355763824738    6.63368874813943
H        13.10665546706096   -0.99182048017507    7.34888654027487
C        15.91254478070072    2.38632729916832    8.17335193952484
C        17.27083807475177    2.65607605027407    8.17964102399972
H        17.90888439692970    2.20126358674598    7.44033022643930
C        17.83141086086794    3.52943526981001    9.11561610865976
H        18.89609900253317    3.70619668287350    9.08119183081473
C        17.06649457660746    4.14796193088298   10.06875857561016
H        17.50772337374320    4.80830065786027   10.79904967471277
C        15.67688562198177    3.92770039404470   10.09079591113116
C        14.80744052023050    4.53223100954699   11.02204512795132
H        15.21779626085925    5.19199869855257   11.77319915722748
C        13.46462105685726    4.27339003520573   10.95873023615174
H        12.77320484845370    4.71355518245103   11.65935458593515
C        12.97745634685241    3.42382079125437    9.95512564148000
H        11.92199542645779    3.20648535333035    9.88307536463306
C        15.09384331886219    3.05933450286949    9.13111304357497
C        17.41172140682664   -0.15416146351240    6.86625940711455
C        17.13820911129636   -0.81460814089923    8.05130047859729
H        16.18683549094029   -0.65972775313353    8.53579327372259
C        18.09606316880947   -1.64775642044127    8.59966878016279
H        17.92553197408897   -2.17706384253163    9.52487959540537
C        19.30928086934112   -1.80603716816243    7.93900847060093
C        19.58175942436482   -1.14833773881242    6.74494933419555
H        20.53543877833749   -1.29986449025379    6.26244472479387
C        18.61766927502820   -0.31514000516787    6.20704016652952
H        18.78140970928037    0.22357491387648    5.28724177079795
N        15.28513176912024    1.49838174724668    7.34482261953212
N        13.76417165401513    2.84460599100403    9.07899042165887
N        20.31482486045233   -2.67813291360598    8.51034170185864
O        15.27405447735179   -0.06459640435318    5.42634358388314
O        16.76734926796192    1.86728976893303    5.29759347875230
O        20.04367116375746   -3.23834556800096    9.54839951800122
O        21.36166894449260   -2.79001325414413    7.91365691634573
S        16.13064499677855    0.87748290219883    6.12098359726442
H        13.81813167593184   -0.42356682370458    6.06167078235624

