49
CSD_code = PELSEE | q = 0 | S = 0 | Stoichiometry = C14H29N2OReS2 | MND = 5
Re        7.20568005526895    0.71793242673028    2.43370184269816
S         5.47581471430492    0.96281676568378    3.96159925406509
S         8.69081029511667    0.17686622900384    4.13415367096275
O         7.20031705124344   -0.63168857262996    1.44829004524453
N         5.86177462892467    2.09603060098869    1.16858360384186
N         8.21211209127497    2.34612508650718    2.38840664360150
C         4.13039546722296    1.62878853696465    2.86440940435433
C         3.09407492450575    2.32077200062019    3.76076076619374
C         2.36165043071014    1.38271372285619    4.71228547248164
C         3.56417683390200    0.44387992524422    2.07187751811377
C         2.48200600907335    0.80146192158035    1.05735032096365
C         4.78721211989093    2.68646901591231    1.96439718110569
C         6.77684096074488    3.05250026512925    0.54009361105687
C        10.08752142749469    1.22756300032637    3.51470520920108
C        11.13308740809008    1.37486149954142    4.62435034675841
C        10.63275647684684    2.04239389733661    5.90089065301783
C        10.69477555061974    0.57447050318287    2.26201594980602
C        11.24209657214055   -0.82955645970247    2.48416524892278
C         9.44108832563867    2.56588412604677    3.12691265761651
C         7.85094724558145    3.47217304249623    1.55197901865805
H         5.44286204277601    1.50687697647148    0.45034445194983
H         2.37018663451831    2.84320412203089    3.12882616573778
H         3.61916559630854    3.07455073789829    4.35263609647610
H         1.77833205174491    1.96416884743071    5.42224988228982
H         1.68378344005972    0.72299833891722    4.17739424955466
H         3.07772388774969    0.78016822372702    5.26497321805494
H         3.15952115247698   -0.26991723305765    2.78992178977989
H         4.39038908379812   -0.07041247528585    1.56779607453844
H         2.12808812572196   -0.10544083867969    0.57293004315051
H         1.63328668650940    1.27769520331903    1.54165652652886
H         2.85321423268242    1.46916915473796    0.28196528065160
H         5.21951868591009    3.46061430702662    2.60606558703540
H         4.03598961248288    3.16013224842666    1.31653068949162
H         6.24265987240153    3.93000510302663    0.15424568742370
H         7.26527035903278    2.53876290480987   -0.29239645017583
H        11.98470832521650    1.93380701897853    4.22546298983381
H        11.47503345746321    0.37286565298565    4.88166592035333
H        11.36717528247743    1.91152798854303    6.69209597536958
H        10.47626401757355    3.11004543174546    5.76558351362541
H         9.69963854037811    1.58328771481039    6.21628968827080
H        11.48896553110947    1.22478619225187    1.88168117751096
H         9.90701359993173    0.51398558508752    1.50102428668047
H        11.51973983912069   -1.26857749406602    1.52914648066077
H        12.12135299124683   -0.82016186795170    3.12306910489410
H        10.47728934663849   -1.45306289256447    2.94028022426213
H        10.15337311553676    3.15359742491075    2.52709834113317
H         9.20853989230213    3.13862642604300    4.03501495532586
H         8.72329940705268    3.85964205517388    1.00429683555757
H         7.48197660118021    4.29279760943854    2.19072279537276

