101
CSD_code = PEMBAN | q = 0 | S = 0 | Stoichiometry = C51H41ClN2O3P2Ru | MND = 6
Ru        0.16114939515013    0.69384551081590   21.03691829849251
Cl       -0.08026818360871   -1.09448062542859   19.48432976066032
P         2.03613892214603    1.27595449566507   19.75528805021033
P        -0.15616400051152    2.56453311050443   22.41654396558664
O         1.76242787186170   -1.01848259126330   22.88870492409994
O        -1.04855311467499    1.79280837463379   19.72841610221789
O        -0.49260247755622   -1.40359374787114   25.23796851121487
H        -0.64350994725196   -0.89050348553679   24.41490761952193
N        -1.56786495685681   -0.11376727762572   21.74514307361951
N        -1.30192044623878   -0.96508913068599   22.75948430067400
C         1.18377737370251   -0.31920870400858   22.18139978272394
C        -2.74964888116748   -0.06974925329155   21.22550606254373
H        -3.50662119958511   -0.72885398409414   21.65998594067021
C        -3.19223301983458    0.81684134360957   20.20937452731625
C        -2.30669987243893    1.70303398560604   19.51778558957495
C        -2.88476564202406    2.55362537820368   18.53652173803593
H        -2.21855949557886    3.22425969981089   18.01135143737796
C        -4.22170836151683    2.52488459225612   18.25333226531215
H        -4.62393070097943    3.18438415181087   17.49673551470263
C        -5.07697769502746    1.64985476803820   18.93084413122904
H        -6.13086164140699    1.63341133804615   18.69833522313349
C        -4.56021684973599    0.81616388968242   19.88596375620291
H        -5.20985692429393    0.13531128495275   20.42010973339186
C        -1.53632257864703   -2.22225960900983   22.66004451819046
H        -1.92902404956308   -2.64854148828347   21.73298956258266
C        -1.24302040027219   -3.13648975071556   23.73274401325644
C        -0.73737305799502   -2.69564616379026   24.97508028067720
C        -0.49140463440126   -3.63085118551551   25.97976802744954
H        -0.10663493227554   -3.27213563719417   26.92154706571105
C        -0.72982481212263   -4.97217007354529   25.76753973613957
H        -0.53064544486336   -5.68158056281411   26.55679511590786
C        -1.22045635577097   -5.41482833568435   24.54462730818602
H        -1.40190683508972   -6.46591984973624   24.38103423821711
C        -1.47218235322840   -4.50424204124284   23.54350445108341
H        -1.85123288225296   -4.83721956753234   22.58800948151111
C         1.61454742493168    2.42093652980307   18.41060330731685
C         2.14463921591138    3.69787954507682   18.27574323286299
H         2.88906762347425    4.05565519413266   18.97314608112350
C         1.71693610783560    4.51182124202447   17.24023613797591
H         2.13641713735539    5.50196912975247   17.13159809595186
C         0.75645183187596    4.06324300661965   16.34903016159264
H         0.42167879123303    4.70635048148547   15.54758877434033
C         0.22589625590055    2.78866556912617   16.48219963194994
H        -0.52264857747709    2.43752869892896   15.78661047465197
C         0.65255287398780    1.96707921321728   17.50765954171619
H         0.24830359660250    0.96889245688079   17.62037898885570
C         2.81819900221409   -0.09973763678794   18.84518964506199
C         3.05720494896630   -1.29301149453315   19.52185698424641
H         2.73536353345460   -1.39703568662031   20.54835992605528
C         3.68011105277825   -2.34643304748513   18.88090901321001
H         3.85006290191893   -3.27206195334339   19.41063980660195
C         4.07619411128564   -2.21820679715316   17.55909061185778
H         4.55490208094447   -3.04470752734189   17.05465806567041
C         3.85419918598094   -1.02969517089213   16.88566418779427
H         4.16446836856412   -0.92405237334226   15.85606306839005
C         3.23126636284023    0.02937454799928   17.52347695402357
H         3.06397828699445    0.95357435871033   16.98852304621905
C         3.50876925354126    2.03833860374752   20.52673455033554
C         4.80287303252097    1.57550567912899   20.31459229779980
H         4.97819938872088    0.73238370062528   19.66310706852250
C         5.87173206825991    2.19309783434568   20.94136426995174
H         6.87302557364878    1.82435757361901   20.77310704868617
C         5.66528527651319    3.27570521288606   21.77975474392217
H         6.50373864914699    3.75171932309935   22.26622797982090
C         4.37882794117380    3.74344238163950   21.99497314761769
H         4.20511061930844    4.58571188035275   22.64887288532142
C         3.31097570348853    3.12399912749268   21.37501728901522
H         2.30288993092120    3.47894936694817   21.54440686388552
C         0.63577920857292    2.57176265967792   24.05919138955383
C         1.90405333694360    2.01413984733408   24.17858119151264
H         2.37540577203396    1.58035459676484   23.30606427611223
C         2.55798270653736    2.01559295417130   25.39711698203162
H         3.54089259956171    1.57647329492857   25.47834424712838
C         1.94896083354485    2.57343576321962   26.50861622481993
H         2.45365663672820    2.56790267503760   27.46318228307552
C         0.68925307221465    3.13947987474620   26.39539268292442
H         0.21408618245951    3.57957168553662   27.26000902714621
C         0.03426109378688    3.14487452349797   25.17752202416233
H        -0.94720599567436    3.59149058248079   25.09456970589837
C        -1.93259937529600    2.64318477565340   22.82983380141342
C        -2.42916088483143    1.79064832985595   23.81601287571317
H        -1.74341562042896    1.18219590058653   24.39146232525394
C        -3.78770480185712    1.72222402961846   24.05590362062037
H        -4.16332578515287    1.05911778421242   24.82178409925638
C        -4.66589142178456    2.49344055789478   23.30970599739320
H        -5.72863522201389    2.43046844928739   23.49076307629776
C        -4.17864925741336    3.34222095154139   22.33148989325231
H        -4.85897004599629    3.94103156065210   21.74447920295910
C        -2.81789485203724    3.41783115005878   22.08859837893334
H        -2.44712306482010    4.07890497943600   21.31807033757040
C         0.12096723132420    4.28410636129041   21.84327941608161
C         0.50987912689050    5.30053643725845   22.71160758487757
H         0.69295058880103    5.08645361965505   23.75432018579682
C         0.67707863021865    6.58903698994717   22.23682385215977
H         0.98131739314950    7.37189596490248   22.91641633827784
C         0.45628244187021    6.87843301630797   20.90021374465855
H         0.58626783401556    7.88733111747482   20.53728002384376
C         0.07413506026480    5.86984473944640   20.03185588811573
H        -0.09449552758855    6.08526652065355   18.98701424676594
C        -0.08772244477897    4.57804821497093   20.49781650561867
H        -0.36703682016556    3.78406226295956   19.81976058109607

