73
CSD_code = PEMCUH | q = 0 | S = 0 | Stoichiometry = C24H44Cl2P2Pt | MND = 4
Pt        2.84648053750140   14.46506946402279   13.66276843852057
P         4.14829130953151   12.77615074082052   14.64619449234373
P         4.13465533027428   16.40907194214851   13.87826521410682
Cl        1.36310761789007   15.72740228273801   12.39578110651638
Cl        1.22227902516333   12.84440927840630   13.31632084411025
C         5.89757220133798   13.25545227173350   15.11319283795561
H         6.40684759569691   12.33581230794316   15.39997319309155
H         6.32191924878288   13.59485306121747   14.16355268334741
C         6.16811427513755   14.28284860006709   16.16566172905913
C         6.14431287786591   15.65704883339584   15.90765740474587
C         5.87089883700573   16.22832925895362   14.55294071095861
H         6.36917918063960   15.61131107305533   13.79841700784857
H         6.31512330532451   17.22258743094564   14.51754320891903
C         6.53150423266985   16.53205324344406   16.92347418558301
H         6.56819529575611   17.59255892533143   16.72176374482338
C         6.89357583107166   16.09059801925312   18.17954469422549
H         7.17446637085707   16.79958146588570   18.94302944970685
C         6.92486137689382   14.73129773267558   18.43244839263880
H         7.23204264700814   14.35762016869075   19.39705534743734
C         6.58769199918460   13.85133342761983   17.42451896660111
H         6.67024832634895   12.79279388287443   17.62061437949981
C         3.47988220560801   11.94205145841885   16.21848607807573
C         3.23264314118193   13.11439396653844   17.17273021769720
H         2.86233260409302   12.74944805672953   18.12942520793138
H         2.47276894914894   13.76632050872707   16.74188924593755
H         4.13034469430140   13.69837920597676   17.35577588558721
C         4.44386132697627   10.92341598557544   16.82339782869620
H         5.39996237088132   11.35762214452754   17.09225519372171
H         4.61166359361501   10.09344127547548   16.14110302650930
H         3.99947092568037   10.51844533115257   17.73201389893341
C         2.13389047497256   11.24454431632803   16.01639604084999
H         2.23634192114196   10.29292467447378   15.50685609979546
H         1.45065811962211   11.86648132011742   15.44749998044348
H         1.68921716481152   11.05336733657958   16.99251570352268
C         4.59288421429176   11.49767117281814   13.29562614742780
C         5.94413698139616   10.79516864618408   13.46897049580585
H         6.02660376367266   10.02899379653102   12.69857184410608
H         6.02964021518628   10.29783398061818   14.43173865135645
H         6.78606427403997   11.47088388944097   13.34173917899179
C         3.51943744110676   10.41829906350603   13.16565258288825
H         3.65380225661423    9.88876807606194   12.22304393386590
H         2.52671963799996   10.85886029248327   13.16781501924170
H         3.59687814569692    9.68891099031289   13.96799430700056
C         4.63016657221979   12.31388738636762   12.00000910414293
H         5.40617906971780   13.07748869733704   12.03886002899587
H         3.66439945008941   12.79548805890262   11.82855698489871
H         4.83848902454281   11.66629100950607   11.15001479350357
C         3.32362459542857   17.64771817911304   15.06333581880593
C         1.93875275373717   18.09399764662768   14.59411769314936
H         1.43369969203431   18.59991252969668   15.41647448770284
H         1.33499812480564   17.24079198764122   14.29950792124816
H         1.98735486147633   18.78274700231252   13.75828316832737
C         4.16580658680541   18.89406611704600   15.32398741184025
H         3.64332816333810   19.52918260216708   16.03860786671829
H         4.30511368932907   19.46915084013684   14.41158188035596
H         5.13734055872895   18.65819341214911   15.74429772738078
C         3.11494426211191   16.83509875831706   16.34470331625905
H         4.05131177631153   16.49749606287419   16.77969560953436
H         2.50146891501179   15.96182874743462   16.11115189564383
H         2.58829438921779   17.43090984476630   17.08835476108678
C         4.60771625601999   17.20834329098708   12.20610134514814
C         4.74610020544051   16.01812083389179   11.25304765446548
H         3.81371103395693   15.45403618856035   11.22069331949271
H         5.55165388956949   15.35541256135793   11.56782669433583
H         4.96957226896201   16.36305605509001   10.24504681923213
C         3.51160151827405   18.13680611849432   11.68544777981627
H         3.50171596358021   19.07770339960758   12.23026098229318
H         2.53802447350682   17.66188680416084   11.75606341910606
H         3.70241904159447   18.36347808553927   10.63698252974111
C         5.92095668503261   17.99932126344268   12.19876939457311
H         6.01983778026216   18.47509208177586   11.22348616556036
H         6.79382590300225   17.36628630753292   12.33610648550421
H         5.93012065190713   18.78849922735651   12.94661234071304

