46
CSD_code = PEMDOD | q = 0 | S = 0 | Stoichiometry = C16H20N2NiO7 | MND = 6
Ni        3.50235142373008    1.04488772487928    2.97572919632007
O         1.80927515786814    1.53515674200677    3.50089040487615
O         2.09463315713731    3.51459229109752    4.48162398657121
O         0.69841172749157   -0.99612471176984    4.36888855905686
O         2.09628871683114   -0.15090062344555    5.88570945235456
O         4.15620278568106    3.33256221542212    2.82659135330326
H         3.36044501369798    3.58424109215646    3.37579724750361
H         4.91596294734594    3.53274562994528    3.37871941906438
O         3.10426710523573   -1.26394650163605    3.35726422871523
H         2.13002794533123   -1.26181678129974    3.59186527348191
H         3.50883283874606   -1.43631636424783    4.21521561109847
O         4.06958719925039    1.21239774473294    5.03896846742893
H         3.35813307719114    0.60144984118913    5.44156318048645
H         3.80139654245064    2.08658230537665    5.35021160510552
N         5.13481459698525    0.49484074676290    2.34961997023182
N         2.93512108073804    0.83436729012456    1.10362770039865
C         6.22887320302239    0.35871403013628    3.08808529125766
H         6.12047989533372    0.55748023996330    4.14637736558703
C         7.44714194045130   -0.02158254659910    2.55806801241662
H         8.30715545077397   -0.11975794812901    3.20164365239760
C         7.55390543603045   -0.27598539712508    1.19269524978078
C         6.40100153126803   -0.14112784523715    0.43096929520632
H         6.43659783204038   -0.33043096793269   -0.62998616171710
C         5.20547619112449    0.23800667967686    1.03071542310432
C         3.92877564430739    0.37632697670421    0.32689046596798
C         3.71033806696493    0.04247232503288   -1.00504187598863
H         4.51842455873332   -0.32877380549446   -1.61528328554106
C         2.43930972846832    0.17299053305363   -1.55064348938664
C         1.42557122901236    0.63130222621266   -0.71328190386861
H         0.41799009276255    0.73716150200016   -1.08328190620039
C         1.71569625368327    0.94716942760811    0.60245838957945
H         0.94883219679879    1.29159102048825    1.28198803651892
C         8.85229774701709   -0.69297585718730    0.58648636709055
H         8.80529078073815   -0.67139006638145   -0.49872190541130
H         9.65588452905230   -0.04023611827257    0.92124772992679
H         9.09728839820697   -1.70666609984492    0.90227141592948
C         2.15757650445148   -0.17863270365518   -2.97373330511358
H         3.06916333332350   -0.43825490801797   -3.50484954149229
H         1.47474159810405   -1.02598884985318   -3.01713808354806
H         1.67779882729249    0.65661563040362   -3.48064697339436
C         1.46592188406054    2.45980698921940    4.30161758328987
C         0.22860079190015    2.16871980516499    5.08644285621176
H        -0.40708138397419    3.01410079480655    5.30994149882905
C         0.02959333745163    0.94204162854322    5.55363667794752
H        -0.81811893770915    0.69320824489436    6.17592535720720
C         1.02052202358874   -0.17492358147468    5.23736210741205

