73
CSD_code = PEMDES | q = 0 | S = 0 | Stoichiometry = C25H40Cl2O3P2Pt | MND = 4
Pt        5.56193263780770    4.51650430517307    4.74608342555383
P         6.52862604969471    2.46434208564169    5.14530280058864
P         4.83395474724597    3.97217029738362    2.59538285173171
Cl        4.41825772710480    6.53027093824286    4.89591169438962
Cl        6.59894602194049    5.28506843487807    6.64107572420449
O         2.21398122419459    4.44744397665810    2.36643117089566
O         4.54930108484862    5.01333785137782    0.06231796942964
O         2.22533554524125    5.28116302030505    0.18085162093024
C         5.91007463573818    1.25681677630820    3.87579614435299
H         6.25382589429114    0.25480397805206    4.13588863788242
H         4.82511764101718    1.29936765152896    3.98604085494747
C         6.30342431226118    1.55636211944178    2.46686021880326
C         5.94750631828589    2.73900613253469    1.79633795138048
C         6.47094705315723    2.94837249228276    0.51807577769544
H         6.23925733775279    3.85191944584958   -0.01782917369846
C         7.26666649939352    2.00857593024673   -0.11016620277396
H         7.65135644638743    2.21090716630118   -1.09809843549853
C         7.54452007481968    0.81002744382205    0.51962182091505
H         8.13279279956882    0.04996680624509    0.02862094724187
C         7.06359157549131    0.60017177556685    1.79719230927416
H         7.27750041348769   -0.33898554978304    2.28929559584764
C         8.41600866013553    2.38971214366627    5.02946884842842
C         8.73809477970042    3.32915955969116    3.86198375034406
H         8.28291795897308    4.30846004243841    4.03880358120673
H         8.37086271810291    2.93743667413218    2.91632715616821
H         9.81459119659660    3.46555910624478    3.77625342473887
C         8.95630900042059    0.98909773843488    4.75308520432730
H         8.64044432448860    0.62236462340911    3.78176607269893
H         8.64685893557822    0.28514545587491    5.52236047952706
H        10.04501587178457    1.02536390539419    4.75638938693155
C         9.08157273511062    2.94846746313742    6.28668829604368
H        10.11781575769384    3.19667216272126    6.06183218620761
H         9.08440378563135    2.22194510205474    7.09297317295232
H         8.57922496933781    3.85255443651526    6.62069327623896
C         5.76964425818133    1.67763019243441    6.70222265520027
C         5.78833276767074    0.14721340837899    6.70673279666815
H         5.43911942879345   -0.19891163497252    7.67868317435958
H         6.79330799026251   -0.24226117583665    6.56152869728514
H         5.12925928804481   -0.27819451293052    5.95431588533799
C         6.44770592984602    2.17475103878327    7.97800814958540
H         6.61236702520744    3.24795782361530    7.93686214279332
H         7.39491679038407    1.67035643429211    8.14335540747486
H         5.80641970278854    1.96163452816221    8.83209985248545
C         4.31895774204533    2.17442645339012    6.69872789563267
H         3.82331802331642    1.88764034595987    7.62445771841520
H         3.74917508426484    1.75030018216038    5.87354856075340
H         4.28948587085745    3.26788789279499    6.62749122213420
C         4.76928130062146    5.44153141974784    1.40719385863452
C         3.61001524617700    6.34828160301925    1.80871588729998
H         3.62968815186758    7.24236291229430    1.18221989190681
H         3.68316113069389    6.63145255230742    2.85900568590892
C         2.29889706899952    5.60752013143571    1.55789477034632
C         3.10261077512924    3.39293450885297    2.05818826155306
C         3.11464882439602    3.10785183771556    0.55597730820661
H         2.15101819509051    2.68274741187286    0.26661998509672
H         3.91121438560130    2.41064909781124    0.29629726559726
C         3.28658401469780    4.43645301684478   -0.19846824187788
C         2.60438867014858    2.19026452682145    2.85097857913361
H         2.68151241265410    2.40690320910128    3.91465684779889
H         3.17134399068201    1.29946580776509    2.59058052920351
H         1.55454332152556    2.02416375465198    2.61647068316631
C         3.20901402388291    4.24448669757705   -1.71001486039068
H         2.22729112344395    3.86789171779082   -1.97655239618309
H         3.97864959103893    3.54819666155552   -2.02818941548830
H         3.36695115781405    5.20464138039158   -2.19117709430635
C         6.09517191576908    6.19057490851142    1.49221319800683
H         6.93401351412264    5.54436203053923    1.24323085900805
H         6.21428789059989    6.54923493245974    2.51568126094483
H         6.09041725981402    7.04092205992098    0.81426385469129
C         1.08487768252822    6.45874260118186    1.90439889882533
H         1.08535170422730    7.35627356979939    1.29537483627117
H         1.13011578923844    6.71890562939908    2.95660137776577
H         0.18240422449630    5.88820355267089    1.70788547085687

