42
CSD_code = PEMGOG | q = 0 | S = 0 | Stoichiometry = C16H19Br2CdN3O | MND = 5
Cd        2.09591706563826   12.61984694517531    3.96828033192406
Br        1.00317437270595   12.04721113760174    1.79696588246127
Br        3.65812980578628   14.54079750634401    4.44625027630608
N         0.61109579981993   13.31952797586016    5.73106070932707
N         2.57064910392026   11.49855879667293    6.07041533785361
N         3.89099649902268   11.01337921496719    3.66396121890902
H         3.46579193947300   10.10529784499003    3.44193588609843
O         4.12908571924475    9.21833111567638    1.54900262469594
H         3.48426698613899    9.66605244549675    0.98466564413743
C        -0.40506871057381   14.15243992268410    5.58461569246026
H        -0.88140575919028   14.15767601177340    4.60990071413608
C        -0.85321983361820   14.98260734263362    6.60322768422818
H        -1.68202079021190   15.65150113746643    6.43580792022279
C        -0.20291098396335   14.93353026773717    7.82526538192668
H        -0.51383177273177   15.56763255360100    8.64180217640244
C         0.85948876386409   14.05935591553389    7.98406459841272
H         1.38810268087507   13.99438799008714    8.92217592374617
C         1.24444404612351   13.26239680384131    6.90748373920336
C         2.37481055084412   12.31805641890745    7.02382360326346
C         3.66246665922110   10.56534447512291    6.06841277640833
H         3.22883669726015    9.57320791520225    5.89673836552628
H         4.22173475288818   10.55960853359260    7.01296513749019
C         4.62612465495756   10.89379942453751    4.91688348830832
H         5.10607840120390   11.85735240057417    5.12216641830416
H         5.40308009284050   10.11529386754679    4.88280970529914
C         4.72081092270417   11.35731285823093    2.50359234188448
H         4.10750881507938   11.93357555691124    1.79663536483909
H         5.56316869505393   11.97883299309000    2.81423723385875
C         5.20856414903511   10.08688847367755    1.79426837570524
H         5.73089039861268   10.35078331459096    0.86587470780122
H         5.89679394931461    9.52518087827924    2.43219498353693
C         3.21320381284172   12.42439255976635    8.24409171257735
C         3.06799199597231   11.52979001726719    9.29857635959143
H         2.32506144586329   10.74689646795188    9.23812441013800
C         3.86868406139083   11.65187522270640   10.42079726318402
H         3.75098744324630   10.95809450788997   11.23974263377722
C         4.81849776545294   12.65748327509097   10.49073163393394
H         5.44268422482867   12.74808471029332   11.36687882377387
C         4.96813035120941   13.54490663435992    9.43722843930425
H         5.70940931795703   14.32756993707231    9.48802334898138
C         4.16764659074536   13.43517456064579    8.31426698443880
H         4.28094931915125   14.12056406852640    7.48705414562218

