35
CSD_code = PEMGIA | q = 0 | S = 0 | Stoichiometry = C11H17CdI2N3O | MND = 5
Cd        8.23402612721681    2.32492596361369    8.46196794915627
I         8.56274178952288    3.36050464767270    5.99028891477569
I         8.24292728271542   -0.17266268482326    9.47077131267797
N         5.80590340029834    2.71337190106543    8.60936017791424
N         7.60815772249692    4.05609456093768   10.09716545841030
N        10.26420310853432    3.25127095533295    9.54755498185543
H        10.57088199608689    3.99677278500665    8.91434828489441
O        12.01668541976917    3.05227709396370    7.46245237582081
H        11.90917833919481    2.87161398544247    6.52277243812178
C         4.92231426813203    1.88749054970027    8.07846816381387
H         5.31634342029880    1.13244879671234    7.40632672237710
C         3.56307228168741    1.96312973540355    8.35030518234165
H         2.87530668429022    1.26974546720785    7.89418444707509
C         3.12432175677512    2.94162362581632    9.22618181973017
H         2.07825394994572    3.02649443697176    9.48015191121904
C         4.04820286750402    3.81546664195852    9.77688307492559
H         3.72971070371896    4.57162781419871   10.47679297024241
C         5.39200479921371    3.67506610863952    9.43706281850603
C         6.44225502521361    4.55243971903893    9.99999130471481
C         8.71257632484955    4.78318956285555   10.65717229054016
H         8.44752435526638    5.22051163583632   11.62833194928484
H         8.99417668846634    5.60497751401493    9.98184420862906
C         9.90347910935835    3.83649810122895   10.82958542945995
H        10.74053350831543    4.39022081121210   11.28526896685649
H         9.61942881923614    3.02281369949214   11.50664070426081
C        11.38689810537793    2.31948468652439    9.62805272510885
H        12.26285084483793    2.79772233872001   10.09222959475772
H        11.10166543188197    1.44753331839844   10.22311902070621
C        11.75368032478645    1.88319955142636    8.20995623572206
H        12.63886402256714    1.23301475807612    8.23969260277432
H        10.91876182998437    1.31422371236604    7.77311118316905
C         6.07438502392890    5.94166553364387   10.42709156377895
H         6.01142865639935    5.99128861521230   11.51516518525379
H         5.12679591601814    6.25576470428085   10.00121493837708
H         6.84796009610779    6.63988935284687   10.10899309275075

