44
CSD_code = PEMJUP | q = 0 | S = 0 | Stoichiometry = C23H17BrN2Ni | MND = 4
Br        6.00118151931215   11.65238989327480   -1.94022631325659
Ni        5.60095745265004   10.45439112727981   -0.18924486566038
N         5.25625302564735    9.37326180948786    1.28602531074814
N         5.27729462078655    8.65516502258360   -1.15844672287890
C         4.99448253181277    7.66116424156302   -0.29236205663787
C         4.47057508873931    6.93591144091370    4.65280161472089
C         4.76224188569530    7.79185777198746    3.48977158908205
C         5.04458603314379    9.14639594438712    3.63765376269041
H         5.05568748531310    9.59266635472105    4.61832840041026
C         5.80079100640607   11.83054906176366    1.11932151570030
C         5.31711457784405    8.38406239467738   -2.45560447124782
H         5.54770616517902    9.21141553196516   -3.11517955793327
C         5.28796419436387    9.92288357670706    2.50999049711252
C         5.35293205013784    6.81854993768401    5.73055408563758
C         5.59805251482034   11.34174905560177    2.43956248398725
C         5.99417711690369   13.51765949247443    3.37235975439093
H         6.07005584469993   14.17130931080872    4.22900629254274
C         3.79392962026375    5.31411733281295    6.80582082298356
H         3.53655814910195    4.69032391503821    7.64861602456400
C         4.72235188384060    7.25355312969490    2.20333255740673
H         4.50700212891046    6.20545204180168    2.07075181259443
C         5.69588103657951   12.18072816857702    3.54472045477131
H         5.53622559792545   11.78397386790544    4.53730119723327
C         3.27276557447248    6.22452665890650    4.65924699454975
H         2.59813590866604    6.32448231332317    3.82044314212112
C         6.09967270062826   13.18421799055033    0.98288811207450
H         6.26534185495913   13.62233367452816    0.00965061690748
C         4.99355917828366    6.00093352943987    6.79544153318086
H         5.67312052843628    5.90268038892294    7.62998648590420
C         4.74438772928447    6.36383115612303   -0.72807575655661
H         4.52042141466272    5.58458108355474   -0.01743182780151
C         6.67914442748213    7.51899058986724    5.76048184736756
H         7.04252610365855    7.73469822039417    4.75851675814345
H         6.60022476171808    8.46074858674316    6.30458735680175
H         7.41521877854295    6.90392239397530    6.27448829989278
C         2.92912666954239    5.42299350593422    5.72996248176167
H         1.99264728013996    4.88595978315753    5.72478743582673
C         6.19380897288038   14.01132848299859    2.09504191734513
H         6.42712696868583   15.05646032224784    1.95194910766607
C         5.08031964079729    7.11611138931862   -2.96391731641410
H         5.12598398415327    6.94685401789789   -4.02735081115279
C         4.78841285090229    6.08738763407249   -2.08307244079931
H         4.59865191823030    5.08689876770559   -2.44208092242194
C         4.98150122379691    8.07572908662754    1.11460279664214

