107
CSD_code = PEMKOK | q = 0 | S = 0 | Stoichiometry = C37H65IrN2Si2 | MND = 6
Ir       -1.94039803682587   -0.04694964362767   18.24239563904415
H        -2.82284658371520    1.15536732803497   17.88902994466739
H        -0.49534743198755    0.43061542350174   18.43589861137618
Si       -1.85413048504292    1.60218968494033   20.06535036809432
C        -1.81027288130089    3.45966000823743   19.49182007783051
H        -1.55813684907148    4.08266702802133   20.35052713841692
H        -1.01275915528330    3.59398522442609   18.76280678596672
C        -3.11136399473882    3.96751778042486   18.88223276283396
H        -3.37685310921102    3.37070403648212   18.01434868400369
H        -3.01152199801713    5.00616863571073   18.57154080468990
H        -3.92635225088260    3.90294634872659   19.59726978122247
C        -3.44509231223799    1.37489323568306   21.14814742816266
H        -4.32351016936292    1.50782446403772   20.51876331656017
H        -3.49381022538437    0.35865837034609   21.53475216997405
C        -3.52942558760402    2.33979723106101   22.32648651830982
H        -2.71216077241080    2.17340699801928   23.02291699095154
H        -4.46673985227598    2.19920053711546   22.86326327458685
H        -3.48469562250659    3.37054994487715   21.98783363774994
C        -0.35351907870157    1.46199756019383   21.29221993243081
H        -0.48820923024676    2.21414204427316   22.07084164545234
H        -0.36512943734737    0.49452046365940   21.78862702425546
C         1.02071847700052    1.66116337799578   20.66649044908338
H         1.21064132574828    0.89838217466031   19.91678172588169
H         1.79943122059022    1.59222641684184   21.42414245362756
H         1.08908350992963    2.63563035940071   20.19118674759884
Si       -1.18019787159065    0.66850459983277   16.02770251896879
C        -1.54538173582189   -0.90649093505846   14.94138993673648
H        -1.73361613079805   -1.76947306654916   15.58196158881133
H        -2.46912489654110   -0.73368071569850   14.38798544486505
C        -0.44144914444777   -1.27152171753840   13.95581057312229
H        -0.25644067160034   -0.45754687008480   13.25999299831833
H        -0.72079131363458   -2.15334144876835   13.37962783102434
H         0.48666635099343   -1.48868375569721   14.47704126399139
C        -2.07523416266396    2.16747251098142   15.16587582572827
H        -3.14233027830914    1.97744616477855   15.09550654597248
H        -1.96271978462885    3.05434760589700   15.78774962264546
C        -1.55988485981223    2.47440368546071   13.76143472661290
H        -0.51281626309885    2.76039897645008   13.78051054901446
H        -2.12501694571816    3.29576189725430   13.32309532190060
H        -1.66764948951204    1.60877554758583   13.11304367348504
C         0.69121874127857    1.16072107107041   15.85251025189812
H         1.33496106860956    0.38767675346414   16.25867532113581
H         0.93410441915222    1.23975085056831   14.79281729039325
C         1.04215940292124    2.47411551040247   16.54171235002486
H         0.46730693045065    3.29726105267594   16.12863588222189
H         2.09989465655335    2.70073438597743   16.41641302448307
H         0.82454598818213    2.40491753307706   17.60359521773987
N        -3.79498904310325   -1.10292200838560   18.01617085760774
N        -1.05826889761316   -1.96630982840340   18.65462492676071
C        -5.11592637744855   -2.87430635411816   16.93842574986116
H        -5.98328960724141   -2.30966696487777   17.27228758929881
H        -5.24469056714399   -3.92059069318772   17.20933004175290
H        -5.06190074230214   -2.81634409942435   15.84997202037410
C        -3.83066653342514   -2.31915612630097   17.51069482929644
C        -2.74407581434322   -3.18916877263239   17.46468282475123
H        -2.92880145921951   -4.14385940234216   16.99138382477110
C        -1.52549810835578   -3.08103754514571   18.14201142541927
C        -0.77932271232166   -4.39185085446846   18.27547409850808
H        -0.38210122112101   -4.68102969351713   17.30206789195129
H        -1.45825280510540   -5.18060017958859   18.59802410080168
H         0.04133327754141   -4.32515907668996   18.98553986069161
C        -5.01462153450333   -0.49456659317399   18.39913007825235
C        -5.56565346209017   -0.82581015483670   19.64790112396858
C        -6.67400307841984   -0.13262665740398   20.11152662313336
H        -7.07289699840172   -0.37590673318577   21.08620044822520
C        -7.26289977837483    0.86111995027537   19.35484102073481
H        -8.11299231848970    1.40713788651401   19.73616739773357
C        -6.76571252251557    1.13043186242630   18.09476548724762
H        -7.23975788998286    1.88160682480270   17.47949493744203
C        -5.66573935291382    0.44931792755040   17.59524371820798
C        -5.01220432912512   -1.93797809723874   20.49915410618039
H        -4.05354328438797   -2.27528980419189   20.10778966652027
H        -4.85629942026180   -1.57062299916890   21.51758801088963
C        -5.96573437584634   -3.13279250145185   20.55191072994444
H        -6.93017164085603   -2.83944129211765   20.96039044194229
H        -5.54990530261359   -3.91899298523983   21.17953470944216
H        -6.12863406642136   -3.53917219090738   19.55678066117801
C        -5.23251460261332    0.71430491342750   16.18109786127752
H        -4.29933424169035    0.18935040973927   15.97895143142175
H        -5.05968728687815    1.78670468339563   16.06071688635399
C        -6.28993644400172    0.26954216272362   15.16880631379875
H        -6.49187603177470   -0.79483554415273   15.26308311769670
H        -5.94368337354523    0.46542279120675   14.15589428185117
H        -7.22414068931141    0.80467666286428   15.32137395350295
C         0.09782560786090   -2.01996925167756   19.47067258850540
C         1.38589165308541   -2.06865600987233   18.91232193068259
C         2.48441081805528   -2.07224830827531   19.75797583012390
H         3.47898825700518   -2.11045260093872   19.34339144707305
C         2.33258337215852   -2.04244705859631   21.13187865861697
H         3.20156619762796   -2.04668691871198   21.77296482060764
C         1.06487346735191   -2.02195340048546   21.67607378435989
H         0.93601867375652   -2.01736229601152   22.74944813287747
C        -0.05803648570872   -2.01392800471154   20.86236516715022
C         1.54846999048497   -2.15688581353683   17.41745502184449
H         1.42536258526608   -3.20061337162614   17.11005301847011
H         0.73745619502124   -1.58987404897167   16.95449681509860
C         2.89065139819378   -1.66014155445387   16.88917046620857
H         3.12534309684292   -0.67642837697186   17.29011442735445
H         2.85885507712591   -1.59373880038671   15.80299387153395
H         3.69526762733421   -2.34265844797251   17.15346007458925
C        -1.42040666488728   -2.04536823999650   21.49743883263076
H        -1.37783442580208   -1.55374368491276   22.47245829636680
H        -2.12798333725037   -1.49497708134223   20.87476829896714
C        -1.91453782281396   -3.47965818908704   21.69360452851893
H        -2.06486405614119   -3.97215167754251   20.73606772518563
H        -2.85899223988387   -3.48543715152949   22.23426912014572
H        -1.18701982754708   -4.05561330429734   22.26286242243977

