46
CSD_code = PEMKID | q = 1 | S = 0 | Stoichiometry = C12H28ClCrN4(1+) | MND = 5
Cr        8.35494853878497    2.65051690838353    2.16630470079174
Cl        8.35489512384374    0.42641404113684    2.16628794476556
N         6.94961415037241    3.05817969793681    3.60410995841221
N         6.91500864484726    3.06221489320885    0.76140831313000
C         6.20550489832561    4.10506109093958    2.89471303144965
H         6.85261373954414    4.98534113679285    2.80446609559277
H         5.31238370779936    4.41051348476179    3.45857536247712
C         5.77872259623686    3.63559616824649    1.49826805654090
H         5.01592533764257    2.86381318087401    1.60129677148154
H         5.32520381692321    4.47256609484254    0.95182289799138
C         7.62989204341766    4.09538471549192    0.00329764516093
H         7.72412442279212    4.98396689618431    0.63836503096663
H         7.06763647614978    4.39139267844551   -0.89396598028232
C         9.02388773317879    3.61355192470684   -0.41666030026036
H         8.91687430293155    2.82696020060079   -1.16380711086903
H         9.57289151567570    4.43990439982273   -0.88664393318262
C         6.45938415081741    1.98646451459775   -0.11309681898038
H         6.02958946728007    1.19453948574708    0.49586645638208
H         7.30532018787207    1.55300743103408   -0.63774488771928
H         5.72051992211068    2.33532308726659   -0.84220740882992
C         6.06243598474379    1.98729974782979    4.04657547227984
H         6.66229854512644    1.18478176314163    4.46937905251017
H         5.53489520547009    1.56841992964016    3.19514399153656
H         5.33529059106045    2.33621614006418    4.78726959348447
N         9.76018023390700    3.05818550449799    0.72843430431227
N         9.79480924665499    3.06222646918598    3.57121509666855
C        10.50428707672766    4.10504558402103    1.43786806705847
H         9.85718084205264    4.98532689252815    1.52811633397794
H        11.39740808431285    4.41050000926960    0.87400773426342
C        10.93107467257339    3.63559634954672    2.83431984015433
H        11.69387281121134    2.86381527507137    2.73129134643013
H        11.38459645581604    4.47257024969238    3.38075641842234
C         9.07990694410845    4.09539884967470    4.32929483836178
H         8.98568352660312    4.98398067061454    3.69422376118442
H         9.64214766518650    4.39140837309695    5.22656789146655
C         7.68590415899526    3.61354840403923    4.74920929770543
H         7.79291192635202    2.82695707633738    5.49635806712809
H         7.13689358324269    4.43989791174246    5.21918910071127
C        10.25042530863367    1.98645868923631    4.44570452039331
H        10.68021812643312    1.19453696969052    3.83673441211485
H         9.40448508737662    1.55299944908169    4.97034604950011
H        10.98929039162669    2.33531034470569    5.17481958287345
C        10.64735976699718    1.98729760537932    0.28599263267355
H        10.04749997708029    1.18477744191008   -0.13680782815394
H        11.17489250838657    1.56842329197263    1.13743240116753
H        11.37451050277525    2.33620897700868   -0.45469780324350

