95
CSD_code = PEMLOL | q = 0 | S = 0 | Stoichiometry = C33H57IrN2Si2 | MND = 6
Ir        7.23856400824842   18.70192671692136    3.82919954356855
H         6.90869298466740   18.63624349626060    2.33110155502081
H         6.30931603845332   19.78780050975175    4.39446860481576
C         9.76423076985566   18.56392848512081    7.48072991915668
H         9.28223577801042   19.43036617232777    7.93079522056413
H        10.83826386448878   18.73305392256791    7.44375811138657
H         9.57770884211607   17.70756461102042    8.12924348931171
C         9.22408317048195   18.29912049193282    6.09302304711905
C        10.12448327499014   17.73341472240189    5.19263842584638
H        11.14135465546358   17.63615043506456    5.54456101032329
C         9.83169269274369   17.09624979749307    3.98451218038153
C        10.90218366853168   16.18070531403217    3.43723380754405
H        10.50144641385669   15.18146769198515    3.26703508011129
H        11.74284813945649   16.10839686690113    4.12266064140024
H        11.26433966132219   16.55393091249968    2.48031446847334
N         7.95164320318990   18.54606919742378    5.83500716644526
C         7.09951356719416   18.66506242916057    6.96165670869694
C         6.72546949905457   17.49702233413004    7.64578585278520
C         5.84765156404659   17.57816317165393    8.71689864778939
H         5.56141468959952   16.66724025287761    9.22414164558919
C         5.35506320009176   18.79373466208095    9.14675702969456
H         4.67464545145043   18.84359025385692    9.98362831123247
C         5.76378419288242   19.94682090289327    8.50634183155019
H         5.41259044823556   20.90903225349122    8.85130797014289
C         6.63442947291543   19.90154176055595    7.42722291865733
C         7.26142653001310   16.13911602175887    7.28429945325021
H         7.92920170231457   16.17769968998685    6.42974945198993
H         6.44570578257352   15.45119112897622    7.06017797693797
H         7.81511374298076   15.72339315347556    8.12781391886428
C         7.06722013772125   21.19048926605059    6.80066157230476
H         6.32672769274865   21.51354715572488    6.06974023648758
H         8.01696390862028   21.07534114212553    6.28790332263784
H         7.16142889792773   21.96629616516233    7.55899311563977
N         8.69358034434320   17.22079021478181    3.33702662536899
C         8.46111622529789   16.33034832861265    2.25991547698194
C         7.79374599636592   15.12690577329721    2.53477755787491
C         7.52220661190907   14.24088351734536    1.50574264807904
H         7.00688272535991   13.31667295206880    1.72701697528555
C         7.90708906283486   14.52320513449634    0.20822520849577
H         7.68916245584130   13.82739814558220   -0.58808063203249
C         8.58193737992568   15.69755646557928   -0.05624030270446
H         8.90124347743913   15.92161393924493   -1.06424684563475
C         8.87587809748556   16.60488024809433    0.95345025179070
C         7.39573652069111   14.79560728549194    3.94196608858258
H         6.76859430723852   13.90704442510829    3.96802437499215
H         6.84661027260779   15.62562817757054    4.38593188735251
H         8.27832585681059   14.60676867092398    4.55672795376564
C         9.65473769390345   17.83756947521319    0.60396282076669
H         9.65853513258402   18.54618563772546    1.42510408011083
H         9.22358038896471   18.31784274545972   -0.27199915656169
H        10.68515206724764   17.57366678436364    0.35775478971435
Si        4.91110649475997   17.99800353195896    3.46099392074015
C         4.65588359980017   16.53902017143476    2.20695532866634
H         5.22898584195282   15.66597841083944    2.51076792490002
H         3.60578829399137   16.24454818429701    2.24778031420977
C         5.01656216555486   16.87185008047333    0.76512104953750
H         4.43895825083447   17.71895383117862    0.40687348520624
H         4.82233756108322   16.02062313767966    0.11452801663071
H         6.06972934714318   17.12374760841562    0.68630109672678
C         3.76800807217344   19.43452815211414    2.82855682996393
H         3.69773966853047   20.19894308922648    3.60029202359947
H         4.23602836374098   19.91325328504526    1.96965969282184
C         2.35940642501603   18.98685275579693    2.44729869822730
H         2.38498826866447   18.29666097771957    1.60957783168546
H         1.75126496628292   19.84342042978353    2.16033454306495
H         1.87017408863868   18.48900224236970    3.28016171658292
C         4.18565256896843   17.33002681221427    5.13293380443315
H         3.44791740402818   16.55684024151190    4.91313478024932
H         4.96978406653642   16.84916021214907    5.71449759321520
C         3.54104602536194   18.40214206661544    6.00138622874862
H         4.25131489399434   19.19441035661954    6.21609056710887
H         3.20973844862346   17.98056577550950    6.94922168447920
H         2.68089375760761   18.83902223747473    5.50300629680810
Si        8.18704110780761   20.75171649515144    2.87204281988088
C         7.51926036901332   22.45985550465627    3.52859551156265
H         6.43217946572564   22.46596466426999    3.45504520588212
H         7.75908620653755   22.57588477965247    4.58201966070553
C         8.06782495466530   23.67339740648167    2.78225263455640
H         9.15390600149986   23.69717092398218    2.82096333498737
H         7.69439070889635   24.59255288417028    3.23188798712408
H         7.76143873420849   23.66148825992258    1.74108929724183
C        10.09718243730428   20.71522236831632    3.26397616384871
H        10.47325524092490   19.69327811086333    3.21345471900082
H        10.61522122337334   21.27371502330029    2.48459526418694
C        10.49106863066658   21.29377850168732    4.61747669964066
H        10.16595923797843   22.32602005976340    4.71399055641392
H        11.57357383645159   21.26688682832030    4.74171345716097
H        10.05034098087726   20.71658387038535    5.42529540533683
C         7.94430420941968   20.91835161074004    0.93730283561528
H         7.66577441965117   19.95872972187594    0.50894139547015
H         7.08868402375914   21.57315470038536    0.77541480958782
C         9.13666116010612   21.46823195019674    0.15930982684291
H         9.44351761047626   22.43835235944696    0.53907725066449
H         8.87802706043741   21.58516029524105   -0.89243952296460
H         9.98574154379469   20.79301108211780    0.22119922173176

