94
CSD_code = PEMMEC | q = 0 | S = 0 | Stoichiometry = C33H54BN2O2RhSi | MND = 6
Rh        2.11839599758230   13.19913863224809    6.43450716233043
Si        3.90244539885040   14.34529599951903    5.39703063376658
H         2.43445407225948   12.27160374605124    5.28206704415654
N         3.17085905450595   11.95607638511973    7.62016643066093
N         1.48139951284324   14.31202619035212    8.14039522935689
B         0.56553625777514   13.51508651391152    4.85946379285132
H         1.13085837282792   14.27728459202510    5.63659584573059
O         0.64193553639410   13.72031478923719    3.51555008689862
O        -0.47816196569792   12.70063106610582    5.20038588671639
C         1.44136687228201   14.98152589897024   10.50784618941991
H         2.19575880841962   15.72339383826826   10.76889053578207
H         1.26898659843704   14.35997096812111   11.38423770029466
H         0.51832807595876   15.49811995033851   10.25634710924673
C         1.94344428157838   14.14001027131345    9.35630317763170
C         2.87445070750702   13.15861532033868    9.69663089489256
H         3.17303597188411   13.14140642432926   10.73520517191529
C         3.35640088462072   12.10796303459145    8.91992282909994
C         4.09168295407631   11.05226071437595    9.71989055216232
H         4.26299943585309   10.14595339011375    9.14700067579374
H         3.51052995225106   10.79808494143213   10.60474685531362
H         5.05036402405269   11.44343626042225   10.05629186086646
C         0.36481081165698   15.15343077248970    7.93127561257795
C        -0.90675733172073   14.55859375180308    7.88159387899796
C        -2.00673795918437   15.33548993529929    7.56203864855242
H        -2.98381808857779   14.87537201933500    7.51183025758404
C        -1.86962513120577   16.69123719021999    7.31862004571282
H        -2.73333071001179   17.28630221353867    7.05993150122877
C        -0.62773645038288   17.28504486269091    7.43852234641807
H        -0.52221839993745   18.35071974865890    7.29069870548083
C         0.49576160798778   16.53627025495691    7.76071481193633
C         1.81588085304434   17.21217901207475    7.97671732888290
H         1.89101623250973   17.54994109686356    9.01174123475813
H         1.91509631878758   18.08438349208813    7.33505864260315
H         2.63183422268761   16.52089042577992    7.78396455713118
C        -1.04841188519972   13.10260517035733    8.20400042676411
H        -0.32269499587987   12.51910464750067    7.63207455961054
H        -2.04859255445597   12.74755315848054    7.96910368404618
H        -0.85367346011726   12.92946791662037    9.26408010395942
C         3.68601644147984   10.79433243168803    6.99003733801530
C         5.05699601925904   10.63132440127094    6.75007131688677
C         5.49560401486657    9.49559275779467    6.08062334689535
H         6.55237106026398    9.38039682285509    5.88502629910890
C         4.61067225078275    8.51586422698031    5.67715115452029
H         4.96805165930765    7.64060552343254    5.15529878664795
C         3.26392514874406    8.65390464551886    5.96413330496038
H         2.57089054611990    7.87530550963171    5.67753071635155
C         2.79054911338389    9.77530069484174    6.62382468440601
C         6.06996605272743   11.62477810274176    7.23867087688368
H         5.60867680189573   12.58971178085024    7.42078609309997
H         6.87384229711859   11.74043680107916    6.51483887981342
H         6.51766430300386   11.26893916095569    8.16739705172040
C         1.33509947836118    9.90782916287906    6.95875330450941
H         1.19808098423661    9.96934469398502    8.03922332493688
H         0.77099821973876    9.05753296814247    6.58228247974675
H         0.93104078565981   10.82591943314505    6.51602861125464
C         0.58384635845536   11.65788724735096    2.32263120926711
H         1.33068716150490   12.06185759246562    1.64314281335770
H        -0.03173932069023   10.94148711729611    1.78704915744144
H         1.10690361144414   11.16192333256081    3.13670631416160
C        -0.93530647766551   13.53589440766002    1.69843427894188
H        -1.40112455365409   14.46054691342262    2.02349263197733
H        -1.68331485323915   12.89183931496522    1.24406751282384
H        -0.18285798001427   13.78144819209415    0.95336432493016
C        -0.25946009844322   12.81803507792540    2.86371639874613
C        -1.58779812266600   10.90036919899143    4.04074937433414
H        -0.70366497843908   10.28329511572344    4.16397550121743
H        -2.09559701377761   10.62720566518981    3.11979682742744
H        -2.25349042000269   10.70947295407875    4.87913830724201
C        -2.50860244728283   13.22116035026760    4.08633227182523
H        -3.04179373117199   12.96875169808478    4.99998231410016
H        -3.15180879357996   13.02038960406665    3.23491939921254
H        -2.26476103329803   14.28012635106480    4.12471118198644
C         5.08280090824298   13.24278231360176    4.31148662031866
H         6.00446591175554   13.78925401402806    4.11211523378235
H         5.35383524004863   12.34326695990495    4.85582871956819
C         3.29483213228239   15.66215317017641    4.09728485955178
H         4.15793376716360   15.97107984258905    3.50467699094631
H         2.60513382509629   15.15986300382650    3.42117615801456
C         4.95076372522965   15.26835000579881    6.76635190482251
H         4.54516863947477   16.27032924053231    6.89386148040091
H         4.84705050663039   14.76933449752807    7.72999724803879
C         4.46871446860367   12.81506839136899    2.98459504629820
H         3.53177807875945   12.29488344561753    3.16062949273864
H         5.14002739518939   12.14293099025515    2.45132189033706
H         4.26784915942952   13.67260897695917    2.34903207297739
C         2.61033576065813   16.90812747243392    4.64007890410996
H         1.71904424654102   16.64132264637612    5.20181517331344
H         2.30966861479492   17.56448605288625    3.82368804843386
H         3.27884497989743   17.46737284597059    5.28992326800769
C         6.42880649619144   15.40141679472521    6.42220542751322
H         6.89741400985597   14.42634371329291    6.33023959209119
H         6.95167510812085   15.95765786779897    7.19968098297310
H         6.55573568204375   15.93318168203167    5.48280906544085
C        -1.22591502520900   12.38329222549758    4.02447242033932

