99
CSD_code = PEMNAZ | q = 0 | S = 0 | Stoichiometry = C33H57N2O4RhSi2 | MND = 6
Rh       -0.12076248957515    2.87300776512164    3.86763929702209
Si       -0.06701820709805    4.01379371697397    1.77437232880712
H         1.05090772677034    3.81679451965150    3.80423504917766
N         1.34069787253724    1.39744941200494    3.57208558016134
C         2.28380221512622   -0.85968588441183    3.51754280357045
H         2.56020883900748   -0.96177701766235    2.46888196782746
H         2.02167136875529   -1.84362589688525    3.89805706675111
H         3.15276265104542   -0.49316137960838    4.06145770063100
C         1.12177770760439    0.09778524010001    3.66058940869286
C        -0.12168865902878   -0.49360094226003    3.86637680412224
H        -0.12200570541915   -1.57444553153240    3.86554650367143
C         2.63455535061059    1.77357494694988    3.13692909440033
C         2.96877984190733    1.63714975372196    1.77971580103860
C         4.21216188255120    2.04293059098482    1.31470584287802
H         4.46949468724087    1.95799109829586    0.27135649408302
C         5.13690977945074    2.56198285037813    2.20049445773022
H         6.09954660666025    2.88694650755331    1.83654875032499
C         4.85414869179535    2.64577166425631    3.54985170296377
H         5.60548219861143    3.02644900311012    4.22195614855376
C         3.61607443655092    2.23248306032831    4.02687872003841
O         1.99867378286958    1.07526881260477    0.99345579960647
C         2.25627698245393    0.92036338036216   -0.37792046617398
H         2.42300939706323    1.88356795373211   -0.87075727027269
H         1.36463947398109    0.45586677976685   -0.79680126550293
H         3.11849939087710    0.26806764280583   -0.55605520314917
O         3.27888849914747    2.20793679363882    5.35137532819593
C         4.28721200308563    2.48270580040872    6.29162539135224
H         5.13943906247651    1.80450951393278    6.17205282284000
H         3.83655668478681    2.32049164981166    7.26996996876983
H         4.63546109198986    3.51792843015888    6.22582969359868
C         1.59933847237688    4.60174276608057    0.95500038325764
H         2.22426949800198    3.74776987434105    0.70827499761369
H         1.35718703211391    5.09657605833613    0.01266871882363
C         2.41991440620189    5.55944888676575    1.80726922573053
H         1.83562863234879    6.43569026450599    2.07431552154166
H         3.31104507168906    5.88768877129703    1.27335312152493
H         2.73641424241977    5.06928439621988    2.72368419405329
C        -0.82893383763889    2.68554804003278    0.58105299216327
H        -0.23483388765749    1.77620763343412    0.63938803177985
H        -1.81939588506393    2.42533856920887    0.94031812247764
C        -0.91405964829488    3.14404276476059   -0.87040480548622
H        -1.51195098048428    4.04793465694657   -0.95896835104387
H        -1.37163269214931    2.37268922519232   -1.49066075651812
H         0.07437252913438    3.35452801276459   -1.27083503189607
C        -1.08754305560860    5.67250206442152    1.72066567531760
H        -0.81518113237301    6.27729612596227    2.58491552871515
H        -0.79260592791724    6.23757762517041    0.83596619169249
C        -2.59813004715415    5.49708932697945    1.70739170309513
H        -2.91298861734796    4.97268165256752    0.80932182991298
H        -3.10348329852310    6.46230447445675    1.73512942640811
H        -2.91507043391110    4.91975560982864    2.57122366024133
N        -1.58290115381555    1.39789376497175    4.16363424357016
C        -2.52739208669380   -0.85871538252923    4.21501664967984
H        -2.80456519585693   -0.96113469898448    5.26344511030500
H        -2.26557113408190   -1.84262370732417    3.83420587388570
H        -3.39579756977432   -0.49147235324368    3.67070195457458
C        -1.36479474976557    0.09824209802155    4.07318628593996
C        -2.87657847412672    1.77410857970528    4.59930532049312
C        -3.21014513323262    1.63721069090251    5.95661502280179
C        -4.45326832946078    2.04289477306173    6.42239460376935
H        -4.71008617131576    1.95762403609564    7.46584336643331
C        -5.37843475541446    2.56227677184133    5.53723231430077
H        -6.34086865905366    2.88718318611815    5.90176353850447
C        -5.09637265438094    2.64642816744434    4.18775257556800
H        -5.84804354715734    3.02727936236031    3.51612239281684
C        -3.85855838480582    2.23322938650218    3.70997459530388
O        -2.23965845467029    1.07490420357862    6.74207014713075
C        -2.49688885601390    0.91868853759617    8.11335889448302
H        -2.66323133162231    1.88144562534552    8.60719886059617
H        -1.60525866409833    0.45353257378190    8.53152424976155
H        -3.35923073154545    0.26643589036979    8.29108023940285
O        -3.52211049585512    2.20897659208609    2.38527506787559
C        -4.53074803036182    2.48436004183734    1.44554369527351
H        -5.38287749889501    1.80598903806369    1.56484902332268
H        -4.08030672985443    2.32294520208018    0.46696982811182
H        -4.87908671952377    3.51949003044712    1.51221281474089
Si       -0.17585659707499    4.01478840243606    5.96157557169923
H        -1.29284440450867    3.81602080753946    3.93525230726849
C        -1.84223877302960    4.60301628820502    6.78078036132636
H        -2.46668701295659    3.74896319479881    7.02854234942141
H        -1.60028780022984    5.09909515609815    7.72251971740383
C        -2.66328381951309    5.55932730176145    5.92740862068899
H        -2.07934664889045    6.43540311005454    5.65903482297611
H        -3.55437860275398    5.88798483163958    6.46112365699658
H        -2.97990057922569    5.06783696496104    5.01174398026647
C         0.58613737412936    2.68832453843216    7.15693991083242
H        -0.00679876093507    1.77825361146732    7.09837193109828
H         1.57740410424830    2.42898252964391    6.79926266296684
C         0.66877546834544    3.14763465884223    8.60831616987609
H         1.26536413393860    4.05235447799821    8.69718185757980
H         1.12651358946976    2.37725185209754    9.22966666864102
H        -0.32044786598210    3.35707171011860    9.00733316334211
C         0.84501721516898    5.67333798673970    6.01551006396546
H         0.57331686093443    6.27786658778135    5.15087937720412
H         0.54972663370041    6.23893988727373    6.89976112575452
C         2.35560629706461    5.49785563440049    6.02973571428166
H         2.66984166083226    4.97366680810343    6.92815528908049
H         2.86119274745300    6.46295796223116    6.00197695258807
H         2.67292668718391    4.92015625368235    5.16628435497833

