51
CSD_code = PEMRUV | q = 0 | S = 0 | Stoichiometry = C24H22INOPRe | MND = 8
Re       -5.75122456901869   -0.22019513978900   -5.41787121558695
I        -6.04057628623953   -2.43077486896506   -1.75440936605894
P        -8.07009073122178    0.27330035901803   -5.63099730201857
N        -5.32930952960368    1.26067151979531   -4.59902519556091
O        -4.98799239369052    2.22436581640287   -4.00342152077665
C        -5.21832191066386    0.62125155372428   -7.36628387287979
H        -5.80648465686492    1.46221814741708   -7.73510542216781
H        -5.32536452376660   -0.19574103103509   -8.08351508773354
H        -4.16927897751272    0.92536614405363   -7.36962214559975
C        -5.54844055246356   -2.25302702737263   -3.80404118232265
C        -6.39157718598464   -2.62249523818372   -4.86830036552517
H        -7.38116102544783   -3.04174865727973   -4.77137111539419
C        -5.66357284834222   -2.46231871205311   -6.07036463052748
H        -5.97249546496475   -2.84571040585762   -7.03427280683079
C        -4.36164767899792   -1.99848465163617   -5.73559493805595
H        -3.51100580632523   -1.96483473447944   -6.40108410426377
C        -4.29949805616998   -1.85863130617807   -4.32007021616813
H        -3.42488465188401   -1.60661364093769   -3.74131063122440
C        -8.60375189782739    1.78841602992860   -6.49060149996998
C        -7.81959864735783    2.92573953755969   -6.32176475884397
H        -6.90422088082907    2.84712128300832   -5.75023427914720
C        -8.20437871059993    4.12195304162390   -6.89828838157360
H        -7.59319910351945    5.00198688239640   -6.76843339099860
C        -9.37010174304493    4.18881215729645   -7.64542734622395
H        -9.66948054363592    5.12198175038512   -8.09882414694595
C       -10.15012520339492    3.05731959946496   -7.81681391891622
H       -11.05611166384510    3.10806460866862   -8.40307434914241
C        -9.77287735845646    1.85741453482265   -7.23970025166301
H       -10.38124811853219    0.97553810984878   -7.38576692318824
C        -8.89552333315503   -1.05334784073090   -6.55399488575029
C        -8.62645684172130   -1.13416145170636   -7.91924155690682
H        -8.00406438224316   -0.37537104646710   -8.37475162972576
C        -9.14758953434997   -2.17207564663328   -8.66762428997938
H        -8.93922671878348   -2.23234303092763   -9.72580669386068
C        -9.93076566998842   -3.14083696954085   -8.05765904490410
H       -10.33355747125916   -3.95543244382526   -8.64105590494923
C       -10.19040258715913   -3.06941415508747   -6.69904385367604
H       -10.79380150654426   -3.82871664535070   -6.22317517397467
C        -9.67133894439890   -2.03174847644457   -5.94329164559134
H        -9.86664131817616   -1.98280564475922   -4.88053084507879
C        -8.98777185336424    0.42265809499033   -4.06348327436268
C       -10.37849488274750    0.48969926405505   -4.04667131730556
H       -10.93182483578100    0.45489116784726   -4.97485220724898
C       -11.04633171768036    0.59913792795714   -2.84142787724421
H       -12.12559676056212    0.64404953152371   -2.82814482719308
C       -10.33536081384061    0.64943409264823   -1.65171307865238
H       -10.86323691074668    0.72750088635393   -0.71301189339974
C        -8.95147961563138    0.60565379227807   -1.66676660931501
H        -8.39548059127696    0.65161725461343   -0.74278335579764
C        -8.27875789436284    0.49710170572044   -2.87076375019080
H        -7.19647509596614    0.47516397182050   -2.89741591958393

