130
CSD_code = PEMREF | q = 0 | S = 0 | Stoichiometry = C49H75NO4Zr | MND = 5
Zr        3.71561247509371    3.68448805488667   -0.42515629414965
O         2.28024327954056    4.11238922294447   -1.56210354196101
O         3.54166653873433    1.75887423348631   -0.42144661293208
O         5.15943584548271    4.45088128339572   -1.45796814500175
O         3.14647394107372    4.63578995906154    1.15879475300357
N         5.57802811079981    3.13365578947972    1.04562502482351
C         3.51986105663224    1.04046470518282    0.69840625796564
C         4.72594909127235    0.87647650069381    1.40947770966806
C         4.80727463254145    0.05511246768148    2.51684065651487
H         5.76071023115900   -0.03771479118573    3.01732047218574
C         3.69637724913148   -0.63664314041710    2.98054495382789
C         2.49556370048626   -0.42568378467735    2.31450047011943
H         1.61533095339495   -0.92108244397578    2.68036578897008
C         2.36864962329476    0.39252290481775    1.20047214103288
C         6.27033373208877    3.78091880431905   -1.75312574355705
C         7.20471227874120    3.55004874318994   -0.72593523199399
C         8.43289110485855    2.96102771937015   -0.97383859481807
H         9.10488198090360    2.82047522214690   -0.14163173769714
C         8.78549241137772    2.56666403749264   -2.25363129391179
C         7.83436324353598    2.74025568774356   -3.25646752143984
H         8.08284594720237    2.40085494491326   -4.24722387510738
C         6.59385481950331    3.32029820011445   -3.05173066776151
C         3.94210155368328    5.46790039876117    1.82575973255035
C         3.77879543678129    6.87371176658993    1.84264195076673
C         4.59622459539796    7.62337371672115    2.67152354135395
H         4.46240115013526    8.69118641257895    2.69195893832207
C         5.58725739952403    7.07804023050410    3.48451790158672
C         5.78299205820444    5.70919258175918    3.40964947206806
H         6.55885052239647    5.22429926433791    3.98128082313724
C         4.98446023854941    4.92152755177501    2.59801394347846
C         5.89563691671728    1.69439313862079    0.94472267951714
H         6.78660827307139    1.46198557150843    1.55321472430816
H         6.11899279542942    1.46281846466993   -0.10664655400011
C         6.77400315060315    3.91349992875698    0.66553149653823
H         7.59278965047891    3.71846066782881    1.37930554741314
H         6.51732675661503    4.98175236770697    0.70975282504471
C         5.22961597344946    3.44817498184829    2.44661408837824
H         6.04492876834377    3.12839490407568    3.11808296591977
H         4.31978072966673    2.88976736488149    2.70978657764294
C         1.21340191795591    4.42610801887016   -2.40353143112812
C         0.58616317852476    3.13593630231062   -2.97131021038023
H         1.36978849672710    2.48426665686733   -3.35254896888976
H        -0.10375581476700    3.37479893874819   -3.77764334846404
H         0.04683192305048    2.60944963635224   -2.18994352855113
C         0.13148696590152    5.20260991383981   -1.62447887938161
H        -0.08337031753400    4.69224526287747   -0.68780148221656
H        -0.78134472563799    5.27030316421352   -2.21211831937254
H         0.48202067143620    6.20541403579111   -1.40064216829993
C         1.70126088795437    5.29925536750440   -3.57828683441632
H         2.31556651567375    6.11355929209790   -3.19941950751391
H         0.85287917426886    5.71320365856810   -4.11871094895011
H         2.29818483958388    4.70337583338094   -4.26177165250138
C         3.82947101834025   -1.55294258159867    4.18768915392892
C         4.86265777124378   -2.64442646685964    3.87457056904755
H         4.54503726856101   -3.22278545980566    3.00972933380967
H         4.96808118184349   -3.31843760998233    4.72236920018715
H         5.83672170177992   -2.21578459990933    3.65666905618918
C         2.51286952123725   -2.23945642078704    4.56065544815734
H         1.75435689157955   -1.50998940888636    4.83435989095624
H         2.67438274065695   -2.89222942380631    5.41643684893878
H         2.14373547111838   -2.84813905048422    3.73875484220405
C         4.29642428239358   -0.72844413405316    5.39595372588747
H         5.26726817326616   -0.27622102199345    5.21400700203626
H         4.37613956449212   -1.36262236392914    6.27659375737468
H         3.58396771507820    0.06664469586667    5.60553581510795
C         1.01826254769153    0.64205343795955    0.54276777687498
C         1.08448139155189    0.19858831673750   -0.92457423617408
H         1.84490138108821    0.76761703647625   -1.45590260060924
H         0.12245782236983    0.34638699500705   -1.41124552625455
H         1.33746132473831   -0.85890843701042   -0.97918021623245
C        -0.13262343349661   -0.11608050870306    1.21486451778211
H         0.02405281671836   -1.19124920256028    1.16976579362142
H        -1.06069844225073    0.10718584525261    0.69178100582908
H        -0.25328433019405    0.18567295284958    2.25268892352293
C         0.71769523727724    2.14816659746747    0.64800157271357
H         0.76688626703941    2.46385282724859    1.69171872988285
H        -0.28765733387350    2.35065858187149    0.27887099105768
H         1.44061138323995    2.73943102306183    0.06804071516844
C        10.12876531073030    1.93963451793147   -2.59446705740270
C        10.82927010493054    2.79631477374589   -3.65827969355710
H        10.97326692697782    3.80900704888483   -3.28796203863374
H        10.24422856404546    2.84873222844297   -4.57192759014788
H        11.80257823106058    2.37427888936790   -3.90065774701471
C         9.90305106662620    0.52128509707944   -3.13695816760725
H        10.85664822954553    0.04976620974968   -3.36591155449832
H         9.30456410029363    0.53590580004775   -4.04336538713648
H         9.38557042584706   -0.08593957939325   -2.39718292124766
C        11.05460560150334    1.84307910957832   -1.37866882966789
H        10.62472474705754    1.20581691288785   -0.60943658213398
H        11.25052564589857    2.82720364768814   -0.95956408980349
H        12.00622780677632    1.40944439573075   -1.67986412318524
C         5.56379288764156    3.42881952954982   -4.16718889532662
C         6.06021007232905    2.86790166137041   -5.50502055238231
H         6.93647853088703    3.40719152447629   -5.85733288321646
H         5.27720411314576    2.98087502812231   -6.25259655010091
H         6.29712729172789    1.80927837386952   -5.42692467982547
C         4.32715308627035    2.61637930544239   -3.74263519383073
H         4.61971786768428    1.59119740346085   -3.50849156904885
H         3.60705321474361    2.58587685857598   -4.56025845850506
H         3.84773513622383    3.05586948097146   -2.85629301841080
C         5.20334790675633    4.90538066033416   -4.37630426807945
H         4.77619953035148    5.32097685316060   -3.46569834590783
H         4.48651718627198    5.01143022649842   -5.18814690036926
H         6.09780675835505    5.47070615533924   -4.63249508430398
C         2.75258479291375    7.52330927066392    0.92502531199353
C         3.13300566361914    7.17325949079159   -0.52491061847467
H         4.16136223743355    7.48098133354794   -0.72289013602569
H         2.47999062048879    7.70539606423769   -1.21657402464272
H         3.04834612533739    6.09269346899250   -0.70848825241365
C         1.35804442879850    6.98493168102586    1.27045979916148
H         0.60232061701972    7.45373171732825    0.64334901267986
H         1.12506746085181    7.20493968798071    2.31095094037653
H         1.32445637698661    5.90689732119521    1.12526472030025
C         2.71448280405680    9.05125111579231    1.04657426008345
H         3.67082162259685    9.49365402917853    0.77710574189130
H         2.44723199565189    9.35965268386598    2.05466296056509
H         1.96067759466443    9.44519005660861    0.36736473573869
C         6.41033265316334    7.99200232161344    4.37944994283970
C         7.44026752607211    7.22299795056981    5.21163762063192
H         7.98571820158638    7.91762285311905    5.84749894861598
H         8.16051879597630    6.71760577347180    4.57254010369964
H         6.95455515584226    6.49057620077924    5.85206723046926
C         5.47177120459840    8.72752898188267    5.34612806293269
H         6.04438924613331    9.37295111939718    6.00924823305686
H         4.92097707887129    8.01051904033747    5.95105243355385
H         4.75410160963938    9.34159734316988    4.80977200183646
C         7.16228589304180    9.01052896555561    3.51108495195236
H         6.47375749406789    9.63434993474001    2.94830223614352
H         7.81055044736810    8.49606584157314    2.80480513595712
H         7.77522014704111    9.65743230523217    4.13553639567042

