83
CSD_code = PEMROO | q = 0 | S = 0 | Stoichiometry = C42H36Cl2O2W | MND = 6
W         0.44195070804473    2.64925762461385    3.37961029365980
Cl        1.72974660967202    0.58307821001654    3.38043532240810
Cl       -1.51577329175644    4.07912780875029    3.55313781578569
O        -0.13762231432741    2.14147345196074    1.76123764914585
O         0.56853502688092    2.83356357699207    5.15510755816819
C         2.05322900379403    6.25979713781619    0.97251813119746
C         0.92891993712489    5.50640261740161    1.67849021345844
C         1.35597630031519    4.31848109604265    2.47002898262737
C         2.30002962359478    3.51822582705155    2.85922279971903
C         3.76856844560279    3.24143134832864    2.87310564259206
C         4.62836816726564    4.30450028644537    2.19482379422765
C        -1.00845947983568    1.78091930345402    0.82456139905098
C        -0.71010540443454    1.96458473228933   -0.53569927824260
C        -1.67695710839549    1.63815925582736   -1.48002005172027
C        -2.91240001618319    1.14881772829479   -1.09461244982711
C        -3.21325437018679    0.98398447288077    0.24762776965511
C        -2.27152335924893    1.28790131486529    1.21771473828856
C         0.20420460832170    3.15736838986651    6.40317034165152
C        -0.14570820920007    4.49377185954873    6.67547433078205
C        -0.73532330696518    4.80409495233105    7.89426487347115
C        -0.92050322455367    3.83030025096048    8.85863642389904
C        -0.45596400173465    2.54755279236653    8.63811527635953
C         0.12037787566452    2.18938157300718    7.42307760032238
C         0.60428134319256    2.51522689003818   -0.90310257915570
C         1.76400639286992    2.07519465548086   -0.26376615791986
C         2.99452715296838    2.59427132249507   -0.62418964288846
C         3.08441443633838    3.57274731501964   -1.60031439245243
C         1.93549555252976    4.02628043732965   -2.22719587308290
C         0.70504741811435    3.49715671515299   -1.88613378284931
C        -2.50432000479669    1.20983667485325    2.66885009815583
C        -3.60748965020062    1.80019403648614    3.27397099586734
C        -3.69100127580272    1.87373493266102    4.65483288198715
C        -2.67783377677694    1.36613529427320    5.45060419850774
C        -1.59539718762324    0.72129067750567    4.86402720983407
C        -1.50527312805961    0.63821883196529    3.47705443322821
C         0.24677784383036    5.56419717133586    5.74632101307591
C        -0.59660005055822    6.63241040490909    5.45408871502354
C        -0.13305371035257    7.70429359454879    4.71536041344684
C         1.18247480619351    7.73679213141190    4.28031541296669
C         2.02537289026192    6.67389707761799    4.55833498487224
C         1.55820452175056    5.58221308978580    5.26756303665042
C         0.70044188460319    0.85069844197934    7.23578109398535
C         0.09180467339210   -0.28328128873630    7.77528352351199
C         0.66262523990271   -1.53089128666133    7.61124636178363
C         1.85141273853149   -1.66676124290504    6.91221908131968
C         2.46894922787745   -0.54815870886065    6.38025152301272
C         1.89943791873210    0.70206749629346    6.53917561701630
H         2.56820209794289    5.60316660019129    0.27650849059136
H         2.76899809185933    6.64609085719880    1.69130883077942
H         1.63802402963268    7.09605989748638    0.41401131862626
H         0.21163319944148    5.15070172148852    0.92735584965625
H         0.38243479709282    6.18500137887177    2.33965969662123
H         3.93138421072592    2.26996136124691    2.39527813816738
H         4.08667983005839    3.13277193752475    3.91661719886062
H         5.67814058659515    4.02313209819184    2.25141197036901
H         4.50254978785624    5.26576300756935    2.68536654253063
H         4.35090220953103    4.41001571580577    1.15067830869154
H        -1.44659387512950    1.75906317478889   -2.52809526206439
H        -3.64787538172491    0.89780274059383   -1.84361088252686
H        -4.17777578825905    0.60420583318147    0.55008036049029
H        -1.01592472842005    5.82762346414565    8.09191405827786
H        -1.38150904621078    4.08312320461389    9.80138011373261
H        -0.51460176468251    1.81082358126863    9.42528526483068
H         1.71244490952401    1.29750745078289    0.49061111859582
H         3.88927903305449    2.22530592479955   -0.14604815169080
H         4.04716968354529    3.97956525467469   -1.87490701279082
H         1.99924818827575    4.79344075468503   -2.98519258744290
H        -0.19099284959493    3.85720523273881   -2.37055592779012
H        -4.37771234284182    2.23930314764524    2.65848756069649
H        -4.54410281636539    2.35194736819514    5.11132261605887
H        -2.73548906115032    1.45222568452588    6.52576231274887
H        -0.85831574233579    0.21409831177959    5.47361929470754
H        -0.76140621765020   -0.01387535492615    3.01874670327757
H        -1.62010227945011    6.60808978099493    5.79468358172868
H        -0.79674916663238    8.52518366301435    4.48670809971795
H         1.54894774407051    8.58799504803519    3.72530226660483
H         3.05446583102774    6.69739071273775    4.23182520387023
H         2.23370671434013    4.77046180730283    5.51608276731542
H        -0.84720078675282   -0.18645201403206    8.30160970967058
H         0.17478610400380   -2.40134384073513    8.02582811804510
H         2.29271988506800   -2.64324399163919    6.78070544809904
H         3.38938275870420   -0.64722840168161    5.82693360864874
H         2.39853467018120    1.57347660594152    6.13061793274297

