45
CSD_code = PEMSOP | q = 0 | S = 0 | Stoichiometry = C20H17CrNO5Si | MND = 6
Cr       -3.67698636051928    0.50702148713800   -2.88323860443567
C        -4.81978167269014   -0.26530286554251   -4.14755073489419
C        -4.39984533648647   -0.63830716938487   -1.59124364850912
C        -3.25044539554373    1.84429170214866   -4.11811787682412
C        -2.81357505359255    1.45437576929736   -1.52941885700098
C        -5.10678187207490    1.58449932111660   -2.47067679587979
O        -5.66878298861485   -0.60790513315212   -4.84746875341753
O        -5.00958603292125   -1.18693981116713   -0.78113469739940
O        -3.16503260651590    2.76462520358190   -4.80944705704599
O        -2.45162454573853    2.13618077262055   -0.66753262622485
O        -5.99767525640735    2.26669237195881   -2.20562592192661
Si       -1.75720230553041   -0.96721718839879   -3.43950931145412
N         0.26384675473637    0.01260363569795   -3.13335910483719
C        -1.21967279479877   -2.55197613604776   -2.44766104965436
C        -1.44423973557881   -2.59548729637005   -1.07086916862517
C        -1.10417595495734   -3.70628712061248   -0.32028441870675
C        -0.53979046290851   -4.81168347530390   -0.93560874867498
C        -0.32366465056528   -4.79679872909175   -2.30312603525830
C        -0.66130894024971   -3.68042379575931   -3.04813693388830
C        -0.92540175840933   -1.35303439773664   -5.13759015963535
C        -1.61645898528536   -1.71127801094679   -6.28769006984038
C        -0.94618332768766   -1.92342596222031   -7.48088140782999
C         0.42830096199390   -1.76704091584353   -7.54089324500490
C         1.13326455012948   -1.39683654665849   -6.40657433525198
C         0.45943765136629   -1.19294919678037   -5.21560602996851
C         1.15798381380605   -0.81361333330662   -3.93959925834370
C         0.19191407553114    1.35852254589006   -3.68061232393222
C         0.65475949475244    0.05147112896142   -1.73636933325360
H        -1.89532019906987   -1.74221021752604   -0.58110889881210
H        -1.28410325147446   -3.71426102258025    0.74497048418350
H        -0.27637889289378   -5.68216733709059   -0.35301048586866
H         0.10764601187334   -5.65905089976209   -2.79108851509275
H        -0.49242182611480   -3.68462651112053   -4.11549299849776
H        -2.69011941977079   -1.82710370313055   -6.24504566626910
H        -1.49513002713251   -2.20590866122171   -8.36685676928684
H         0.95232203322404   -1.92706818039601   -8.47127817392499
H         2.20586187403541   -1.26962719784641   -6.45174168530562
H         1.37928474728178   -1.72558991736012   -3.37653395305128
H         2.10485528483909   -0.29659978579369   -4.14173222318391
H         1.16247634334879    1.86214027714880   -3.61837044011508
H        -0.11250360223514    1.31083799208864   -4.72401306751773
H        -0.54391824249748    1.94166285878534   -3.12909803605964
H         0.65299566216296   -0.95679284456536   -1.32769500296775
H         1.65177334417668    0.48636890973360   -1.60994782057405
H        -0.06121110499537    0.65241938655119   -1.17913023993503

