53
CSD_code = PEMVIO | q = 0 | S = 0 | Stoichiometry = C20H24F6N2Pd | MND = 4
Pd        1.36255810354018    5.00350606221552    1.48890633287547
F         0.32872582017531    5.39776213543801    4.01197223486220
F        -1.12034495672854    5.35797323950239    2.39272938515340
F        -0.39676868370204    3.51373501107544    3.22434448069425
F         2.02707561989687    2.67271500807173    3.03768956930963
F         1.69404041085418    2.31974996456586    0.92501111989889
F         3.47054749575327    3.36634126065659    1.60688997408136
N         1.00138040411349    7.11025394744727    1.19517383517105
N         2.50001745824806    5.40910733123418   -0.28196180461549
C         0.02276619947404    4.73526273490728    2.85484875691144
C         2.11252053615633    3.25457934080124    1.82950076876826
C         0.44236057912689    7.93740589010027    2.06845707123122
H        -0.21722215109264    7.50416600353761    2.80761159244289
C         0.65245094237320    9.30775027784684    2.05939477388370
H         0.15442374837615    9.90653034447865    2.80190236471137
C         1.49952537887799    9.87453249843530    1.11382585234633
C         2.07996671354815    8.99565336844546    0.20192732578708
H         2.76749868777633    9.36323336760913   -0.54223811863245
C         1.81076048220821    7.63446678195924    0.25792957032105
C         2.39518573619573    6.67828820497338   -0.70215732693325
C         2.78466125909074    7.06532212176981   -1.98119742899070
H         2.64797398653816    8.09079300630482   -2.27758855070196
C         3.30794718273599    6.13463457667735   -2.87076529409621
C         3.39879710579780    4.82285233814031   -2.40821937127452
H         3.78328230426557    4.03589838554884   -3.03577169456611
C         2.98480572859401    4.50637746686854   -1.12714235533287
H         3.05753078459654    3.48662182798707   -0.77378866973974
C         1.81109831843918   11.35657519077231    1.04568798558286
C         1.04947678163547   12.15847898987620    2.10328523377949
H        -0.02548137869863   12.05789316304440    1.97246176406799
H         1.30143339965785   13.21212256296764    2.00802313200248
H         1.31993013071835   11.84033676956738    3.10719302823365
C         3.31686622426581   11.55151672988579    1.27509927960560
H         3.56023457252892   12.61086058106083    1.24889379811786
H         3.90632465225851   11.04873302305710    0.51303274114405
H         3.60539082993857   11.15607239292297    2.24648980832399
C         1.41951415331755   11.88577243151183   -0.34161148053401
H         0.36294263007588   11.70712052637289   -0.53076101259864
H         1.99519544346018   11.40884458680815   -1.13040420018637
H         1.60123073551759   12.95651289692872   -0.39232899767219
C         3.75212951860207    6.48533244822770   -4.27681041904028
C         3.60433568357174    7.97747052834709   -4.58466078133008
H         2.56507045792337    8.29230893692433   -4.52097190734544
H         3.94851294763142    8.17142464214589   -5.59776156491027
H         4.20633496082828    8.57945523291462   -3.90729820401382
C         5.22947668411755    6.09976373176859   -4.43826264914560
H         5.84241347040262    6.63342777916322   -3.71476052643823
H         5.57151227296278    6.35972533016675   -5.43704963706026
H         5.38176028150614    5.03401362642652   -4.29502096645924
C         2.89296294513475    5.69307866141046   -5.27243797939312
H         3.00883762915046    4.62208094700955   -5.13288460569915
H         3.18679954766119    5.93767684064373   -6.29024821811327
H         1.84123023061031    5.94248895347725   -5.14817801450233

