44
CSD_code = PEMYEO | q = 0 | S = 0 | Stoichiometry = C20H17MnO6 | MND = 8
Mn        4.98439273397762   12.04959882255584    3.02256718693233
O         4.06335817843028   14.12866227633180    5.39012967067674
O         7.73593790552486   12.07221421193812    7.24275735645727
O         3.70302191495202    9.50144665408101    4.62334832703478
O         3.38651662258874   10.36210658242830    1.22430185111953
O         3.73985766698572   14.46200180981055    1.89794003373617
O         7.49670680516282   12.07885013716133    1.51103557942171
C         5.89996915538817   10.55831772057757    4.33782919406547
H         6.37116751277088    9.59529069782335    4.16089523155325
C         4.52521127739383   10.57756135328957    4.63813513433190
C         3.89005516692299   11.82972503363516    4.91922195985986
C         2.46189690687748   11.86583423908088    5.38728734573432
H         2.42647470102657   11.72255472111270    6.46918277038624
H         1.88835223739272   11.07187330601855    4.91542368420733
H         2.01192209932556   12.82833608172099    5.15642295234496
C         4.71235858767604   12.99547793060644    5.03680971975226
C         4.75808370302310   15.35621052711528    5.34564372277257
H         5.60649662775945   15.36366909524573    6.03721244989009
H         4.03498584115895   16.10946905503547    5.65279845735161
H         5.10681545211991   15.57687877111349    4.33173402680967
C         6.07810421241587   12.90068815445675    4.71000111616606
H         6.69724824050680   13.78502371951050    4.83372297760906
C         6.74758523471185   11.57977081460130    5.06770286118720
H         7.77707117967098   11.57496393307419    4.69441085551712
C         6.78600792725836   11.37599319448733    6.55579142703055
C         5.99428209312183   10.65285202363386    7.38907159571663
H         5.17501160528341   10.01795523577743    7.11764903302981
C         6.47421863090263   10.89726307602546    8.71250431122547
C         6.11353235839082   10.47015705000086    9.98798030700915
H         5.28905723023395    9.78719001312441   10.12582143055028
C         6.83779442742351   10.94407512952059   11.06018180050405
H         6.57858080742977   10.62809053961519   12.05974116437637
C         7.90473369122741   11.82715604275809   10.88624545101663
H         8.44642252441516   12.17491776052628   11.75274180566912
C         8.28240406945897   12.26515150480110    9.63221394785771
H         9.10572450164939   12.94652911202969    9.48900887335972
C         7.55442471273268   11.78769322759325    8.55503291828933
C         4.19783664544370    8.26868049253979    4.14691168537685
H         4.53799662188196    8.35327174251864    3.11005789398874
H         3.35654537475071    7.57994220033961    4.19812397038651
H         5.01414532761260    7.89295147637704    4.77221179176488
C         4.02236360401529   11.02971149870423    1.91183760733797
C         4.23625328353040   13.51341124541509    2.31766227018609
C         6.49297459947569   12.07408178588919    2.06869625040562

