35
CSD_code = PEMZOX | q = 0 | S = 0 | Stoichiometry = C12H14N2NiO6 | MND = 4
Ni        7.25997652654323    5.36580039778625    2.01421385347793
O         8.34411439332017    6.70782860341083    1.29958978838287
O        11.73939046083162    4.28202024973454   -0.91165202811116
O        11.74598717065063    6.52459345839872   -0.78089658472767
N         8.25582329629380    4.01412141509268    1.22543540787466
C         9.40458556149024    6.57864553961471    0.64787739003846
C         9.97581701785838    5.37062233353178    0.23492457780788
C         9.34542825205185    4.14538849035375    0.53537326081891
C         7.67435244644557    2.68354198043988    1.37165377115306
C        11.22125402660717    5.30850886354401   -0.53257127295744
C        12.95677475637720    6.52852544151445   -1.52165576381620
H         9.92941371034506    7.49996486422030    0.37029703911562
H         9.83593899495337    3.25804174905986    0.13417997999016
H         8.45331414616357    1.91371889607794    1.39568003322872
H         7.02042294324080    2.49330005473167    0.51123014215802
H        13.72776305423999    5.96383432157893   -0.99328054994699
H        12.80351322158624    6.07624662961535   -2.50372953889480
H        13.24704153862320    7.57107490604018   -1.62204097544471
O         6.17581803926213    6.70782892442440    2.72880753433356
O         2.78063768428146    4.28202166866171    4.94019715694097
O         2.77402320363366    6.52459352912575    4.80942045972762
N         6.26415621044832    4.01412383485617    2.80303061735721
C         5.11536493193138    6.57864492455650    3.38054899889995
C         4.54416346675688    5.37062289024311    3.79354659153319
C         5.17456233104049    4.14539137341496    3.49311040564349
C         6.84564150660243    2.68354815451197    2.65683303529985
C         3.29875315195729    5.30850947096337    4.56108575932314
C         1.56326911693690    6.52852610762878    5.55023437901090
H         4.59052642892910    7.49996247311668    3.65811579427341
H         4.68407115032081    3.25804668237259    3.89433218894229
H         6.06668827994708    1.91371614830622    2.63282005103571
H         7.49957364230394    2.49332750462254    3.51725956609107
H         0.79225956365601    5.96382596802281    5.02189999939926
H         1.71657821934251    6.07625716259101    6.53230534853057
H         1.27300155502741    7.57107498783552    5.65062358351047

