90
CSD_code = PENGAT | q = 0 | S = 0 | Stoichiometry = C45H41IrOP2 | MND = 7
Ir       -0.94835990844316    2.71284090591012    5.25497757627519
P        -0.43485926377524    1.36043389108036    3.19032011701986
C        -1.90829603029076    1.24566188857791    2.11624982344364
C        -2.69111820363851    2.38197166024405    1.91161836423131
C        -3.82569508035092    2.31524103878993    1.11652721022550
C        -4.20901123014430    1.11844730853061    0.54169216269302
C        -3.46013828344972   -0.02279009633950    0.77421334836630
C        -2.32292236133116    0.04069782026382    1.55583029629518
C        -2.26096303192474    3.69865366947843    2.54272699477228
O        -1.16301000513570    3.53949357025674    3.34378860055398
C        -3.47808638758324    4.34498336657302    3.18277724265885
C        -4.07998876990983    3.81926923908559    4.32889003106584
P        -3.28812132419843    2.42740229356903    5.20578610550506
C        -4.11191812170329    0.97884287864322    4.44790310584803
C        -5.32090447239511    1.04873635530976    3.76768962734018
C        -5.89181657489835   -0.10408877820138    3.25846452823120
C        -5.26581269494600   -1.32814448751058    3.42436199058189
C        -4.05858532453828   -1.40277777955836    4.10002564694244
C        -3.48538512505553   -0.25251090463689    4.60636425169963
C        -4.16461783079557    2.48933759308941    6.80746589234794
C        -4.93137036636900    1.44861111536958    7.31446446889569
C        -5.50174994600347    1.55629694987558    8.57264268777359
C        -5.30915437374172    2.69554993221873    9.33387672180562
C        -4.53568315907169    3.73490351729201    8.83718224072192
C        -3.96215487938902    3.62785895506772    7.58700905612551
C        -5.24966800681141    4.40447486995819    4.81125467531173
C        -5.81022131221779    5.49960274463146    4.18229951622663
C        -5.19728204250602    6.03819755520332    3.06418824628480
C        -4.04304891815387    5.45738224745550    2.57188338091404
C         0.82639016145834    2.13794825971397    2.12077773752057
C         2.13412763422110    2.14588740007398    2.59426709613940
C         3.14613354209850    2.72700435170345    1.85477902318343
C         2.86096124049422    3.30418771492785    0.62771888459709
C         1.56305367125237    3.28976073377778    0.14612820436746
C         0.54815182746000    2.70917345739104    0.88678591695325
C         0.23146505689900   -0.36942669319626    2.97393584052228
C         0.84249491878649   -0.80937077496946    1.80213051573378
C         1.36148728179986   -2.08729366783715    1.71419496023287
C         1.28318071931675   -2.94872793187723    2.79726787493290
C         0.68178631001994   -2.52370655537734    3.96874452526961
C         0.16555219260931   -1.24248191810022    4.05152846526289
C         0.92590020600225    3.77047836918339    5.41102521105704
C        -0.09013458142465    4.58427016266020    5.93346401700166
C        -0.27325434842563    4.84420757310537    7.41168322352756
C        -0.38852932626166    3.54487861614579    8.22541909120828
C        -0.87445449024729    2.37368992468056    7.38432777843999
C         0.00413429641832    1.49555192255932    6.71450003497978
C         1.51044399197769    1.66250408293197    6.68418702284207
C         1.95072306815963    3.08382107031568    6.29188144604709
H        -4.41170809237230    3.20924805648159    0.95176723146552
H        -5.09162196686849    1.07433057333783   -0.07952375799069
H        -3.76159855499563   -0.96650423594948    0.34340672768065
H        -1.75190380746982   -0.85830076976831    1.73317794711682
H        -1.95152306559007    4.36723193914788    1.70994063111093
H        -5.81264304122290    2.00212969450704    3.63467072024205
H        -6.83140757040504   -0.04624011006952    2.72821764961904
H        -5.71724434118416   -2.22357839064702    3.02298963867767
H        -3.56367812878275   -2.35483032122224    4.22557084480679
H        -2.53800248392366   -0.28843385535960    5.12824454734140
H        -5.08845431762327    0.55483981528113    6.72796096588542
H        -6.10060282757684    0.74390483279560    8.95838611956068
H        -5.75675340804908    2.77418799329295   10.31362049657077
H        -4.37978813716721    4.62405945559810    9.43091432083253
H        -3.34826034676651    4.42408325799565    7.18920293194374
H        -5.73305627811632    3.99109413093928    5.68483697704507
H        -6.72195075688672    5.93267126201992    4.56724511427196
H        -5.61920370575989    6.90312054786547    2.57370182796206
H        -3.56884601862508    5.87330947687025    1.69318952722438
H         2.34888597769593    1.68607218978545    3.54926931084610
H         4.15903946163789    2.73239111889022    2.23258508919020
H         3.64925317171719    3.76130988610881    0.04700675521190
H         1.33949767838663    3.73182580877245   -0.81497393236704
H        -0.46139061326931    2.69696937668046    0.50097062105117
H         0.90309387802842   -0.14581648295218    0.94999704074113
H         1.83050853150527   -2.41542562953688    0.79710851832664
H         1.69237084047744   -3.94627546769559    2.72691201393276
H         0.61998218819728   -3.18906536673501    4.81868060624561
H        -0.29754261840432   -0.90552357726579    4.96806829864110
H         1.27095524023769    4.00591295347848    4.40855516290130
H        -0.45280577110886    5.38783885769656    5.29710370518413
H         0.56127455288895    5.45224619318164    7.77931820986635
H        -1.18060760877433    5.43535770943839    7.54621460284639
H        -1.08903196826808    3.69727123766453    9.04859518803237
H         0.57515909642310    3.28372611636320    8.66584797155156
H        -1.78203127685941    1.91832972679498    7.78164867403405
H        -0.29701295221441    0.44785527055779    6.68013324516082
H         1.92450114520797    1.38786428713691    7.66144835792933
H         1.90611285001953    0.95036137902659    5.95611099932799
H         2.11905384292121    3.68777287492895    7.18515322842935
H         2.90171085909457    3.02694276652858    5.75880509156812

