51
CSD_code = PENGEU | q = 0 | S = 0 | Stoichiometry = C22H22N2NiO4 | MND = 6
Ni        5.18988804590041    3.15548557943055    0.00089336525513
O         5.23881559119933    2.43372445228598    1.66743676659490
O         3.83244632004475    4.66174302771315    0.67707013310419
N         7.04422362183700    4.41572158819566    0.49632989088926
C         4.52907140312883    2.68570299216105    2.67696542882891
C         3.58961109022142    3.70290031807857    2.82088097004642
C         3.29591526095939    4.62451789941819    1.80432804073762
C         4.74276360453448    1.77560311944601    3.87585086344409
C         2.24592357171351    5.67625409588088    2.12226241983403
C         7.02270304960331    5.64229653750094    0.95641824167684
C         8.18715155474267    6.37476633438091    1.22418723935582
C         9.40809821918761    5.78836883120193    0.99956456296610
C         9.45611765058590    4.47517234792513    0.50150190803168
C        10.67662802705755    3.78932405519589    0.23782731468370
C         8.22389470574700    3.82687047107688    0.25965298106787
H         3.05719605420880    3.78002527012298    3.75598510138486
H         5.00982138443986    2.36261899452019    4.75155819758785
H         5.53553299551521    1.06550124861889    3.65651644108295
H         3.82501120594306    1.23309041755119    4.09077400477463
H         1.29477384069462    5.19324431468558    2.33400145287821
H         2.54133323811786    6.24853637496068    2.99900961419185
H         2.12870167593338    6.34412979444692    1.27311539613471
H         6.04397994690760    6.07233745849932    1.11992508340008
H         8.11447301913768    7.38284298731003    1.60197679668015
H        10.33015684534827    6.31758037881662    1.19681927244498
H        11.60487724097250    4.30746920487236    0.43227280503281
O         5.24012516709479    3.87744752020328   -1.66558273460973
O         3.83313911189453    1.64869974718670   -0.67711169628950
N         7.04379034319194    1.89490369761685   -0.49368473627874
C        10.67642357353703    2.52263632925821   -0.24177832838703
C         8.22366877793826    2.48421090595622   -0.25918544177218
C         4.53080990892680    3.62600213369594   -2.67556183951006
C         3.29736970704719    1.68649813301324   -1.80469935871167
C         7.02187612767725    0.66831209428086   -0.95372831959974
C         9.45568659315647    1.83634933888085   -0.50325565516209
H        11.60450689509929    2.00485069393075   -0.43796445291978
C         3.59157770310803    2.60876360509310   -2.82054611127400
C         4.74471586693270    4.53705428386296   -3.87369301276575
C         2.24784701697935    0.63472162536770   -2.12403031233817
C         8.18610953740700   -0.06365924886406   -1.22377301152356
H         6.04300290629753    0.23794201482513   -1.11545884775971
C         9.40724711779110    0.52317802092555   -1.00134147772900
H         3.05966095304090    2.53215657890065   -3.75597804463836
H         5.01326148909610    3.95079284831570   -4.74944026714351
H         5.53658560437768    5.24778806596149   -3.65318411601423
H         3.82665771856120    5.07878150593094   -4.08928225887219
H         1.29545697448697    1.11769128731918   -2.33030155534037
H         2.54081054391114    0.06672781708461   -3.00436163241848
H         2.13399901088600   -0.03694510832707   -1.27741558912777
H         8.11311795313171   -1.07173397081470   -1.60150546063407
H        10.32914423475215   -0.00569801389783   -1.20026003129249

