83
CSD_code = PENKAV | q = 0 | S = 0 | Stoichiometry = C35H41N6Rh | MND = 6
Rh        9.96748661734014   -1.44718140259420    6.92126137175432
N         8.59703533701993    1.18545070249110    6.07818472973629
N        10.72677158160608    1.35552327907017    6.29039824836641
N        11.86624202200579    1.23312073899002    8.96841776211233
N        10.94199312146151   -1.59533028856120    5.17336552277128
N        11.12917430135562   -0.86352209106955    4.27974935920490
N        11.37436252998649   -0.22803697355807    3.36634266404837
C         9.69927857385168    0.49703216202212    6.46045293929111
C         8.94338344947730    2.45249496415523    5.67334957414827
H         8.21894458801318    3.14917316788667    5.30529322645312
C        10.28283923798891    2.55744021137623    5.80900942296670
H        10.94594718055356    3.36981591236609    5.59426427163880
C        12.10504454231454    1.06535649483671    6.59753248224121
H        12.74150457577997    1.40757406209944    5.77775798944786
H        12.18153188435346   -0.02889119445071    6.70277039116254
C        12.51027141095538    1.69263233455549    7.90563754838288
C        13.48917916078157    2.67362091183759    7.99243568342885
H        13.99552135701812    3.02631481073227    7.10700513386634
C        13.80272991665999    3.18017812425334    9.24491322723248
H        14.55899511397704    3.94482658759501    9.35132860334047
C        13.13587018799821    2.69151400497287   10.35360195477065
H        13.35246384928957    3.05712992482103   11.34581592022451
C        12.16557323760754    1.70743218383883   10.16778069406909
C        11.42681117948128    1.13768148392824   11.31939654567309
C        10.16036235651441    1.62095611209425   11.64141788761374
C         9.48351910510001    1.07312078310918   12.72110618798598
H         8.50022836393913    1.44646161822578   12.97058785708182
C        10.04180796062950    0.05792514809378   13.48205108395718
C        11.30319316748054   -0.41295973753500   13.14176027097203
H        11.74471434441598   -1.20996754048782   13.72385766006749
C        12.00403263298033    0.11034108090947   12.06698945026602
C         9.55373449964342    2.73110407969312   10.83654365000925
H         8.49325511238404    2.83207261629208   11.05287848371959
H         9.68446115545481    2.54311933805122    9.77239334063328
H        10.04452575854552    3.67748383989285   11.06746944253497
C         9.30418139775914   -0.53883815122699   14.64216058740887
H         8.39208022694354    0.01432506235092   14.85087205548840
H         9.92809696416747   -0.53540918171702   15.53454673441023
H         9.03862557470801   -1.57342173278268   14.42603084103269
C        13.35864724126810   -0.41830286822674   11.69977162941438
H        13.58262312428211   -1.32580356608417   12.25504475756917
H        14.12982123612542    0.31997375796642   11.92061612107237
H        13.40432425762351   -0.63559112051363   10.63386442763594
C         7.24622583708023    0.74834597184085    6.13614831679730
C         6.37782413773559    1.38021809309940    7.03166879995943
C         5.05107401256806    0.98318267155559    7.06758997238969
H         4.37642618526683    1.46603117470294    7.76016487876188
C         4.57207602997672   -0.02494853098065    6.24174449201066
C         5.45645999540089   -0.64538639835305    5.37497400360046
H         5.10173098484191   -1.43860296999354    4.73269913830342
C         6.79325493885146   -0.27632643171024    5.30341599889011
C         6.86818586340646    2.44566666622787    7.96703491166168
H         7.86558618608219    2.20900462119412    8.33187948396325
H         6.19782143528722    2.53448065258005    8.81837660198836
H         6.90974949898208    3.41468907420942    7.46977144905719
C         3.13217314628630   -0.43322124952750    6.30916351197629
H         2.90220746039568   -1.17703718373351    5.55100557256265
H         2.48440907064636    0.42942611780994    6.16072170878588
H         2.90542323839601   -0.85443869531386    7.28813463731111
C         7.72371041777527   -0.98947023858877    4.38087328123713
H         7.17595039202048   -1.61364463661961    3.68038864889210
H         8.39387414028677   -1.63149880388181    4.97405987674712
H         8.34675503942434   -0.29233949244518    3.82241642454537
C        10.99211922722817   -3.22418390544591    7.56227041081012
H        11.85265236937733   -3.36429320519467    6.90768775804421
C         9.75319566948733   -3.59503209578130    7.07672226049383
H         9.71313623830906   -3.97693231244738    6.05648163677431
C         8.58847637059232   -4.00327910494480    7.95207983999660
H         7.99884662360705   -4.76043627473089    7.43012657898375
H         8.97127704834956   -4.46705607102127    8.86260548489287
C         7.67330045442393   -2.81318505226506    8.29765608428440
H         7.17074925788267   -2.99164596823452    9.25569175146999
H         6.89213047302005   -2.73015455636690    7.53641161754556
C         8.40305760260782   -1.48907782937902    8.35146932779356
H         7.73006089314726   -0.64153786663174    8.23115174683882
C         9.60294914733850   -1.26843873301226    9.02262667512516
H         9.83122023249075   -0.25162776372573    9.33345591843100
C        10.30174994193738   -2.33025316497278    9.84328723712744
H        10.79351528727160   -1.85043897049527   10.69130443520696
H         9.55864859344988   -3.01806156526260   10.24999697142175
C        11.35445564449266   -3.09642458587054    9.02347578269695
H        12.30718068671688   -2.56404499887673    9.08926718531161
H        11.51227079069987   -4.09506603694684    9.44757185200063

