69
CSD_code = PENNAA | q = 0 | S = 0 | Stoichiometry = C37H28ClIrP2 | MND = 4
Ir       16.37147310465926    9.31631163286274    4.39833030284985
Cl       16.37021986489625    9.31475035832315    2.11900188394358
P        18.07863750102304    7.82928866014290    4.65399108597253
C        16.37045327071891    9.31502424372366    6.33927192303876
C        19.04404713520164    8.90890697382200    8.98221794229798
H        19.27821935326022    9.25161148463419    9.98004496335519
C        17.59393587810206    3.81032220584141    5.30859799822854
H        17.50198116108131    3.13448500297557    6.14662201045174
C        19.91523139175736    8.04741858350405    8.33169195037284
H        20.81265939315517    7.70683621459182    8.82637656330474
C        20.64317830815143    7.19726468677517    3.61739789457910
H        20.45878359027661    6.16721010776242    3.89070229640320
C        19.91228250781215    9.48604274388343    3.48117389770143
H        19.13761809320788   10.22494916513031    3.65345232595486
C        21.11071554884498    9.83730109854633    2.88981828058046
H        21.29175486454871   10.86190053598042    2.59991935252290
C        17.88431016168716    9.34253710972373    8.36852046586151
H        17.24544383245007   10.05041980886163    8.87586256915523
C        17.53057463799484    3.32107795299150    4.01443780812444
H        17.39272819646079    2.26337988950676    3.84409678458170
C        17.55855427820811    8.91655322526360    7.07403083264504
C        17.81408399722543    5.54030865457923    3.15489183518843
H        17.88636103080587    6.23091033223800    2.32496517952706
C        17.90215730671537    6.03248984981545    4.45612409776761
C        17.77337928354248    5.16427212047792    5.53364511488154
H        17.81723506677951    5.55057459143622    6.54246896179604
C        17.63551264597876    4.18806125385190    2.93689932510861
H        17.57432585589139    3.80670061098467    1.92812429380927
C        22.07636494937904    8.86987028996962    2.66098330336153
H        23.01178789626897    9.14003447599473    2.19319096388754
C        19.67266831875488    8.16568638662035    3.84802950954736
C        21.84120774923795    7.55383247943568    3.02420051326574
H        22.59392904629838    6.80036858072764    2.84142029015467
C        19.64758463397497    7.65799361193037    7.02789732024685
H        20.34285664427043    7.02637812003701    6.49193356013512
C        18.49384139515160    8.09607266073382    6.40595995824427
P        14.66210896680290   10.80076447228126    4.65389245159933
C        13.69687752403487    9.72142688726260    8.98219227387113
H        13.46276740042344    9.37884548493688    9.98007761610093
C        15.14754137840546   14.81970800661303    5.30845386054529
H        15.23943698859705   15.49556867097322    6.14646574790795
C        12.82571427689135   10.58293189053111    8.33166685008491
H        11.92828701870034   10.92353046556063    8.82634569083994
C        12.09770986985199   11.43347418574185    3.61739028377037
H        12.28237795851902   12.46347142997003    3.89072986576994
C        12.82791675936755    9.14448303701840    3.48121443482646
H        13.60233708891342    8.40531978933205    3.65344543173309
C        11.62939985990998    8.79355760451483    2.88986633492380
H        11.44812049532764    7.76901643559880    2.59991532618785
C        14.85660343592730    9.28776573538533    8.36849371696483
H        15.49551043868729    8.57996698367867    8.87590057930376
C        15.21114532318091   15.30889908117516    4.01428655638338
H        15.34925922650114   16.36655909358745    3.84391440264068
C        15.18239588068468    9.71372458110681    7.07399795632738
C        14.92740255399366   13.08967108754883    3.15478845493677
H        14.85517047442889   12.39905172554978    2.32487513000592
C        14.83912073230973   12.59752985094369    4.45602835013890
C        14.96788257291123   13.46578456756666    5.53352972491674
H        14.92370128520623   13.07957398156372    6.54237310598907
C        15.10620202725993   14.44188624864004    2.93676877986498
H        15.16770693029408   14.82318267389121    1.92798953934603
C        10.66404534212909    9.76126268597915    2.66100147499358
H         9.72855088668019    9.49135590362908    2.19321377308558
C        13.06793314970467   10.46477635281552    3.84803490829897
C        10.89958049107651   11.07723643226199    3.02420339479456
H        10.14704587743702   11.83089971371009    2.84148018595151
C        13.09336741526113   10.97231990439163    7.02786469451785
H        12.39807914504241   11.60389657475172    6.49187588371896
C        14.24710333175507   10.53421275784052    6.40592986078928

