55
CSD_code = PENVAG | q = 0 | S = 0 | Stoichiometry = C12H36Cl2P4Ru | MND = 6
Ru        2.47738354124555    4.76183379796158    3.64620178895155
Cl        0.15879684673665    4.76323244469196    3.01219532734161
P         2.51582458198355    6.38347879157339    1.97533219739116
P         3.29194547462447    3.14124418447633    2.18682673832567
C         1.86680866514521    5.85764136029090    0.34116840070665
H         0.87408263218669    5.43752187380332    0.50135321961198
H         2.50306513805699    5.10990414366004   -0.12498185111386
H         1.79610590415587    6.72721769072153   -0.31299601884624
C         4.04261467695136    7.27200763732992    1.46903753208314
H         4.78595452936487    6.55581987869109    1.12686286182268
H         4.45948396302983    7.79962914743960    2.32364737068825
H         3.81735687603259    7.98013432707138    0.67154685559946
C         4.17174590199250    1.73451825952350    2.97125573204179
H         4.95050512907772    2.14979978517503    3.61058891850527
H         4.62451772441924    1.11685156513995    2.19494393395235
H         3.50282189994161    1.12274782043760    3.57082845530349
C         4.68044517872863    3.66650489371977    1.10779489508203
H         5.45510609702549    4.08558435072059    1.74962702531380
H         4.36901641630367    4.41508369011768    0.38402281162695
H         5.07245136416577    2.79701683724230    0.57914549590493
C         1.35936534732747    7.78986396151185    2.20524041793613
H         0.36402047627034    7.37434057282398    2.36119712031396
H         1.36286892556466    8.40747832967904    1.30652108944293
H         1.63166771658134    8.40165563914590    3.06126747430487
C         2.23294773318230    2.25275869523697    0.97605233455672
H         1.76521888314064    2.96917062957296    0.30483492184970
H         1.44067397952000    1.72454284853202    1.50124804443770
H         2.83149328668329    1.54514376118905    0.40224742576811
Cl        4.79691114452330    4.76153661657162    4.27658734139479
P         2.43939951753605    6.38402139190849    5.31601120647730
P         1.66290151006913    3.14064618163764    5.10446173307128
C         3.08825396269370    5.85763336779919    6.95005872937937
H         4.08101394611065    5.43757343462703    6.78994854552790
H         2.45195027959784    5.10983511802904    7.41606098540905
H         3.15885933632112    6.72715634563788    7.60427835874302
C         0.91236533623192    7.27215352594788    5.82214898531865
H         0.16913558707004    6.55582758590052    6.16427420327630
H         0.49548879736661    7.79973683216095    4.96751692366197
H         1.13759025059204    7.98023869237392    6.61965404951133
C         0.78320870413248    1.73408172690193    4.31973011161677
H         0.00448829016608    2.14945383558229    3.68041130163860
H         0.33044450337915    1.11648884141701    5.09608135427666
H         1.45221593867294    1.12237530838229    3.72018066666335
C         0.27463815915394    3.66652239192287    6.18349009163394
H        -0.50008856662573    4.08555686712406    5.54171271251436
H         0.58618515819500    4.41513637423407    6.90718609951254
H        -0.11730547707911    2.79706593479783    6.71219852930615
C         3.59594682094771    7.79023513834085    5.08586179263310
H         4.59124577990424    7.37461727787266    4.92988009155195
H         3.59244857947878    8.40779616385262    5.98459876297771
H         3.32356194619202    8.40196180023738    4.22981302867107
C         2.72233935705549    2.25264552115747    6.31515815225316
H         3.18998121461238    2.96921633262094    6.98626711011672
H         3.51464676849809    1.72452657888130    5.78991448386873
H         2.12388426574948    1.54503389658388    6.88900413009558

