25
CSD_code = PENZAM | q = -1 | S = 0 | Stoichiometry = C4H12Cl4IrO2S2(1-) | MND = 6
Ir        1.82460148499934    7.56303591668784    9.27139797581712
Cl        2.71303410996291    6.74658854327745   11.26893162733419
Cl        3.07131475955046    9.51673003932430    9.51520681865320
S         3.45492639693702    6.69561501993832    7.89936749356742
O         4.55085262654665    5.92857345828011    8.46080379915479
C         2.74033603297773    5.67792498009154    6.57438081064466
H         2.26369341328084    4.82330721043854    7.04224770205222
H         3.54272683075782    5.36491980288446    5.91675800843592
H         1.99977066236100    6.28792004935520    6.07062759514117
C         4.20764748137662    7.98281416489590    6.86074251930212
H         4.90017202335942    7.50488895651179    6.17780876046065
H         4.72370593953178    8.67211734099972    7.52029311362448
H         3.39861138835955    8.49097332761222    6.34928292978528
Cl        0.93633276055671    8.37743508589547    7.27368900259183
Cl        0.57911909835154    5.60809917333989    9.02817405417532
S         0.19443863318160    8.42872035100205   10.64435026909983
O        -0.90138829736108    9.19573014702106   10.08272564906459
C         0.90898374009730    9.44656663029502   11.96923028450199
H         1.38566002571150   10.30114931859896   11.50130217522579
H         0.10654932596131    9.75964002882370   12.62677986758502
H         1.64951509208767    8.83660332959463   12.47306843865967
C        -0.55840815624588    7.14160878131520   11.68295633325764
H        -1.25097102919506    7.61958213681198   12.36582757588173
H        -1.07442503508832    6.45229687244444   11.02336936706079
H         0.25060069194177    6.63345933456030   12.19447782892256

