51
CSD_code = PENZOX | q = 0 | S = 0 | Stoichiometry = C16H31ClN2Ru | MND = 8
Ru        2.85090577166769    3.67900392020735   11.81332291524114
Cl        2.16728368603436    2.58412102214185    9.78878408967829
N         4.94016220090020    3.22443982426914   11.14157620877667
N         3.37954344794305    5.56742250045207   10.60041167338889
C         5.10386539678702    3.94757744429326    9.87252048855210
C         4.73229136072248    5.42166429315752   10.03177630212921
C         5.10469133942906    1.79169663221168   10.89247554422331
C         5.95509599456207    3.64509558914431   12.10551392701043
C         2.40081671798283    5.72181612602017    9.52165560534277
C         3.33206554880414    6.76880235488693   11.43145522916077
C         0.93420416776651    3.17878682995465   12.80184303251232
C         1.93869800513308    2.21811461292125   13.17998154813542
C         2.93686023294858    2.91107301302174   13.93230574393539
C         2.60048868028652    4.30043922702753   13.96426926724233
C         1.33822568988657    4.45466157203874   13.27920150292914
C        -0.38586727631326    2.82568044103955   12.18920351990588
C         1.77537245329270    0.73385116954850   13.05079062249559
C         3.99539017478642    2.25544110935892   14.76841798855455
C         3.23506440057646    5.31359290325620   14.87256927201531
C         0.44930885017506    5.66484683886343   13.32773460623294
H         4.43141495474023    3.48246024718848    9.14372452213507
H         6.14146809075319    3.86536766928408    9.50966230133803
H         5.45100879100794    5.90850921700584   10.69632354243742
H         4.79591713017525    5.91960802373146    9.05445476209467
H         4.33724457605861    1.45925991122405   10.19345416859349
H         4.98291163784187    1.24428668323669   11.82565097080059
H         6.09765886171393    1.57523494180973   10.47667002297311
H         5.78056130083831    4.66944449810622   12.42942749047749
H         6.96285699453958    3.57342550841113   11.67190004014822
H         5.91059597578388    3.00179898592575   12.98054434582472
H         1.39960116145307    5.76811524951130    9.94888107251568
H         2.44046598850374    4.85875346281404    8.85881666443130
H         2.59140608628977    6.63890562193974    8.94663178993484
H         2.31842003446404    6.91717947992729   11.79435696108068
H         3.62925126977367    7.65884351182593   10.85818047465479
H         3.99701530009757    6.66072398027781   12.28739618339506
H        -0.94556184938011    3.71839732789604   11.91936233060309
H        -0.97810617048020    2.24184663308432   12.89691045228301
H        -0.24358168010758    2.22460674692722   11.29190956137305
H         2.70338873053027    0.21134738948887   13.27394477894970
H         1.46680870658417    0.47276443885022   12.03964793363960
H         1.00647773510109    0.38001427004547   13.74140326669360
H         4.78767939712983    2.95299176209283   15.03340066691694
H         4.43497470203858    1.39430322753978   14.26615314365372
H         3.54270180993176    1.89840352471087   15.69648572955365
H         3.00272082906649    6.33039365794811   14.56180975229885
H         4.31898197762374    5.20399286850541   14.89536296252309
H         2.86479867640431    5.18229345474629   15.89246184772343
H         0.99427548944990    6.55121215715094   13.64615372307447
H        -0.35395418426243    5.49190087036257   14.04759787857579
H        -0.01166916704559    5.86538725462735   12.36041157184231

