45
CSD_code = PEPCMO | q = 1 | S = 0 | Stoichiometry = C21H19MoN2O2(1+) | MND = 9
Mo        1.98889740503417    0.04860359568091    6.21572053113570
O        -0.60953737294340   -1.60933439971289    6.34245867294729
O         0.15822388106289    0.89234406907091    3.88017923258876
N         3.26994992061979   -0.82782970857911    4.85673334479822
N         2.68064766021906   -1.73010700127785    7.11303291640508
C         0.36466042016325   -1.01330083578761    6.30158460125308
C         0.92508725527829    0.53143087395548    4.64226992571121
C         1.72844271846239    1.29028340884548    8.15347445757334
C         3.61433465997735    1.58905593642824    6.87719026418830
C         1.37508432939610    2.08149360927344    7.03432341983329
C         3.10273881582632    0.97687375623993    8.04480522010277
C         2.55777532912067    2.27139049086913    6.24678202211405
C         3.46051077059082   -0.27858555972618    3.53143825639878
C         4.79962565861934   -0.60483834902747    2.85909915278005
C         2.32381634635827   -0.74601298835115    2.63027756210029
C         1.63823394392888   -1.93097669456812    2.86792654854042
C         1.99778771216917    0.01779774257715    1.51575819250573
C         0.63057725496176   -2.33542532671359    2.00736969575775
C         0.99440473130510   -0.39137096624272    0.65715891866007
C         0.30602382915397   -1.56764584191843    0.90313262608991
C         3.94496872692838   -1.88407588329201    5.19522089557177
C         3.63646521462056   -2.43487308380020    6.46517360363391
C         2.27108928518775   -2.17936437905527    8.30609764049504
C         2.79290527041381   -3.30540209590142    8.90062782158124
C         3.79626043555915   -4.02650476269224    8.24521845885666
C         4.22015710169511   -3.58789122686843    7.01396418617929
H         1.10574970269824    1.11359908001051    9.01961518040429
H         4.66254815408539    1.65604698244152    6.61225147975996
H         0.45762504590054    2.64982696525016    6.92817346222578
H         3.70297647567295    0.50383375120954    8.81345089593382
H         2.65657766357421    2.98297082594986    5.43614122990994
H         3.38855191393895    0.81227670173753    3.63093141919389
H         4.84020500494172   -1.63863191707404    2.52467816115880
H         4.90545395641023    0.02413564234519    1.97982981364390
H         5.63415188546733   -0.40000921519473    3.52709917377843
H         1.88238860264834   -2.55244421767723    3.72365578919379
H         2.52668722697562    0.93963041589890    1.32381461391523
H         0.10183582725671   -3.25535343226954    2.20303045431691
H         0.74829709484867    0.21185525356221   -0.20257382681075
H        -0.47997484096832   -1.88480338087869    0.23619240885332
H         4.69060714043059   -2.34504912086711    4.56098706749266
H         1.48724054022719   -1.61242060740142    8.79264935498139
H         2.42399396830839   -3.62467596015772    9.86137067572628
H         4.21787381750471   -4.91044920297173    8.69579197717833
H         4.98387951637079   -4.10837294334377    6.45869250134319

