44
CSD_code = PEPCIY | q = 0 | S = 0 | Stoichiometry = C21H17Cl2N3Pd | MND = 4
Pd        5.45217231624113    1.08359327525814    5.74411688481584
Cl        3.61141447930872    1.78679893702423    4.71637553494551
Cl        6.60187576488827    1.14368938042420    3.84405464440521
N         4.52900074741409    1.28435054129974    7.56277095120623
N         7.38321269819844    1.08042030444432    7.90004518169987
N         7.05709128377695    0.42155469171811    6.78949863025865
C         3.26254627767882    0.93199712922003    7.77093664412650
H         2.76358666816504    0.44228680320711    6.94344685001295
C         2.60809473655253    1.20161255818847    8.96068124818209
H         1.57945504285083    0.90628272948909    9.08751513757297
C         3.29258688544339    1.86197605763244    9.96896470167854
H         2.81112523151727    2.09600081889826   10.90565142046554
C         4.61542762890010    2.22148599181337    9.74979867536292
H         5.17685095005366    2.74686667330542   10.50717344060417
C         5.20314948145278    1.91802611382972    8.53331246767610
C         6.64289818344343    2.27733715066019    8.21804758205018
H         6.65095680098280    2.92975661182999    7.31872826923019
H         7.12209452494889    2.79344270846007    9.05116125016114
C         8.41110260772856    0.46661202190112    8.53858966063703
C         8.99514281862231    0.92957385249189    9.79224511956336
C         8.19440166339170    1.25230344730083   10.88625105875635
H         7.12242910295533    1.13035205874258   10.82157203617598
C         8.77032220292498    1.68352467711662   12.06723462274042
H         8.14259486301839    1.92896791548104   12.91115685660827
C        10.14688284041979    1.79345917432253   12.17177569656090
H        10.59307711025159    2.13419104354872   13.09377373339728
C        10.94963236796609    1.45570461197277   11.09431089815646
H        12.02339875895358    1.53064215539605   11.17592353639486
C        10.38001982767861    1.02333235446175    9.91167462279626
H        11.00080693635218    0.76727296553510    9.06654139557373
C         8.74211058393071   -0.63667467753631    7.77169670909713
H         9.49682840104201   -1.36296585309903    7.99204989966638
C         7.84651204185132   -0.64192208142010    6.68830165340359
C         7.68619928918007   -1.60324160554415    5.60417193041540
C         8.79441298203910   -2.26007992765061    5.07561021125138
H         9.77588032296856   -2.05328216433678    5.47569047311189
C         8.64459591470072   -3.14353531840574    4.02333975568026
H         9.51164918024734   -3.63804408664955    3.61074095705765
C         7.38934327289264   -3.38287104854331    3.48994809636455
H         7.27598707810064   -4.06432927434075    2.66018863357004
C         6.27856282028099   -2.74691506654706    4.02112763481435
H         5.29929863996596   -2.93434054892876    3.60753452893094
C         6.41873146155502   -1.86466830791615    5.07615626956878
H         5.52453720919405   -1.38914479406010    5.50491449524773

