72
CSD_code = PEPFEW | q = 0 | S = 0 | Stoichiometry = C32H31BN6ORu | MND = 8
Ru        2.84195831300663    3.54910174377139    3.17793647888865
O         2.20369771271715    2.90045236439218    6.01846694595398
N        -0.34025874605117    4.12913869763443    2.70473811850284
N         1.25673423508024    2.33150405179919    2.60390714501552
N         0.72670943551531    6.00553231840719    1.49756294330382
N         1.27524022848728    4.00191741773326    0.31751920893486
N         0.27875063695728    6.25278885261771    3.97656222467568
N        -1.80178700728623    7.19935722471180    3.23411920238326
C         4.39976164308443    3.01104763450306    1.51481751746064
C         4.73221745106747    2.45558407794410    2.80622766507589
C         4.99934024621420    3.55459258292769    3.69563117088393
C         4.68086222401570    4.75990460196146    3.00681355063181
C         4.34136424158861    4.41002195056538    1.63627364107576
C         4.35458938317211    2.20650063623004    0.25254143149747
C         5.17608912206945    1.04108804745002    3.04478336463847
C         5.66197784107244    3.44020197496177    5.03632075341586
C         5.00195782691384    6.15350965915809    3.46426597635236
C         4.27108907661690    5.41838228749948    0.52907744342711
C        -1.68901877338342    4.20875034538722    2.47592287468117
C        -2.21131168123380    2.99132191471230    2.15136306168479
C        -0.96140415800912    0.72280656490636    1.88171584634059
C         0.31991671958721    0.21171536946925    1.97685569205922
C         1.38236363915663    1.03365690136010    2.34074411984941
C         0.02506267348808    2.84276036714549    2.50316543614139
C        -1.12907227128084    2.07524386630560    2.15011157607244
C         0.54201345092707    7.30982271817161    1.12220014737098
C         0.66751605170315    7.46278409768976   -0.22627642510211
C         1.17066790301387    5.62208027679659   -2.01292332712410
C         1.40506371395899    4.25960743880961   -2.07062996180789
C         1.44958241837739    3.50667582465548   -0.89728641991083
C         0.99115629313672    5.29850183301470    0.36399435057319
C         0.94939751196845    6.17557341790761   -0.75747680513695
C         1.04221607843539    6.43386547890483    5.10268408511171
C         0.48955965765547    7.34534450519488    5.94888976282788
C        -1.73031546461084    8.67934581077347    5.64724860747492
C        -2.76031452132948    8.81264664915629    4.73646277062871
C        -2.74905795851630    8.05818423142839    3.56247016616526
C        -0.80771639521822    7.07066755497048    4.10517729336131
C        -0.71304884370810    7.78287825579981    5.33570165173078
C         2.37353642229275    3.16415668541162    4.90786683922433
B         0.60898706830293    5.32718990058250    2.83699261557706
H         3.64857976336683    1.37977102829798    0.32644791585948
H         5.34487044180324    1.78918022906929    0.05705395602124
H         4.06842617756155    2.82459648684527   -0.59372891254997
H         4.90122312250640    0.70300967596329    4.04289337470101
H         6.26312325188657    0.97802053769330    2.95531792077960
H         4.74104736683205    0.36136110141365    2.31514260384047
H         5.40745144101029    4.28077105603705    5.67797436702622
H         6.74566783672675    3.42828062270456    4.90154556772062
H         5.37257821168450    2.52189075131137    5.54272215408762
H         4.29758883018083    6.87382959094615    3.05142607998912
H         6.00507464822232    6.42992432800497    3.13114099102046
H         4.97118929389017    6.22725039661783    4.54954762558515
H         3.84816565973701    4.99165996430136   -0.37684181936597
H         5.27914629454663    5.77556647971492    0.30348380940296
H         3.66543179426041    6.27839098609261    0.81121833911332
H        -2.17244468878987    5.16441151791715    2.56146933321326
H        -3.23565719795798    2.76656516389242    1.93162707373151
H        -1.79765023905629    0.09748464288399    1.60820242124077
H         0.51202593838881   -0.83114405630506    1.77814409734898
H         2.37524538460931    0.61576789225635    2.44625817835937
H         0.31848641076013    8.05334102266650    1.86215692504141
H         0.56427243772230    8.37462052860340   -0.78085547244084
H         1.15334276306571    6.22791161022600   -2.90801952980715
H         1.56290765563524    3.76926883427965   -3.01969283758955
H         1.63141100177682    2.44047962982448   -0.94045034308094
H         1.95587100493945    5.87459810131814    5.21315621926534
H         0.88216449315325    7.66904066130710    6.89258695209784
H        -1.71335207958287    9.24757379153157    6.56680014903720
H        -3.57729695538159    9.49300989794539    4.92262808662232
H        -3.55197045911733    8.15132384378339    2.84251975047574
H         1.78770699664658    4.80343755004945    3.08738628333674

