48
CSD_code = PEPHIE | q = 0 | S = 0 | Stoichiometry = C20H22ClMnN2O2 | MND = 5
Mn        6.94937332026627    1.29420886799557    3.87334242454679
Cl        6.26993017141357    2.93325106004782    2.58166912933445
N         7.85289819915601    2.68441304745868    5.10735385043203
O         6.06355784298895    0.92319658442180    5.30384130304111
N         8.64141867432012    1.28309820639288    3.01490166851247
C         7.44920264126917    3.18736583031400    6.23107565028428
C         5.62947847661734    3.34983427953127    7.95115685696920
H         6.03749233743627    4.27400196405820    8.32725469187854
C         5.60553205723002    1.52830953152496    6.36650837845452
C         6.99307339565499   -0.94660245548646    2.31250728699359
C         3.94094278941497    1.65330143100181    8.11325826552165
H         3.06860188221219    1.24560971939427    8.60186485631131
C         4.48742157073745    1.00295829376992    7.02992327931855
H         4.05442689571388    0.09207095197041    6.64398543459824
C         6.21939240034414    2.71476482636685    6.85307467383423
C         6.30184671684574   -2.15146380026381    2.04573353075782
H         5.25181627453112   -2.18144052744043    2.29576551636171
C         9.10635004592812    0.36607421383884    2.19419384922898
C         8.23236155943223    4.25083153096486    6.96577163569441
H         9.30139776477880    4.12806966692130    6.79220531357232
H         8.07056813157266    4.15252658171117    8.03893369211284
C         8.38526181984726   -0.86123931132549    1.98399143423761
C         9.33228862578330    2.55750433843077    3.15328947398816
H         8.85256810900425    3.25289716247425    2.44961410300917
H        10.40145948785290    2.49691828682473    2.94513391460432
C         8.99275739607727   -1.99942371741394    1.41832424570129
H        10.04412032290108   -1.97878648333404    1.17893349715716
C         6.94123762577477   -3.23820999851525    1.51535300659134
H         6.39645544037121   -4.15339519721616    1.33639439630350
O         6.33177995461814    0.06065439512630    2.77259275123617
C         8.30067056956701   -3.16304960392032    1.20264888359451
H         8.80599206715083   -4.02316279123352    0.79012826214444
C        10.38760440929744    0.56700528757726    1.41245417961955
H        10.46431088122546    1.60769428137940    1.09452581369847
H        10.34104916444012   -0.03272480218255    0.50407481215260
C         9.14674425022506    3.08832357691378    4.57838203228270
H         9.92744049639342    2.66274581161056    5.22343220473873
H         9.25157721556140    4.17604236761044    4.56064966844203
C         7.79122519247371    5.64295819104132    6.49968000551454
H         7.90943353271594    5.74978530208377    5.42449928412153
H         8.38492577241611    6.40779448167045    6.99530098046971
H         6.74291505557327    5.80907721542488    6.73158194010272
C        11.62964269264483    0.16876212696186    2.21671534392499
H        12.52477524972290    0.32413515338805    1.61816991985668
H        11.58103030235985   -0.87944140158263    2.50071332489137
H        11.71989619358228    0.75475368216660    3.12854545914836
C         4.50647354447491    2.83723455138721    8.56688400185085
H         4.07008148007875    3.35866729015717    9.40536577287103

