123
CSD_code = PEPJIE | q = 0 | S = 0 | Stoichiometry = C64H51ClN3P3Pd | MND = 5
C         0.07230063982481   13.53320077667405    3.76073309081996
Pd        0.86747042873974   15.47989367707308    3.63453990871920
P        -1.83549501606130   15.83047927180376    3.32310351218611
N        -1.71584894919050   14.45364741739856    2.29192230143557
Cl        1.94396314018043   17.59327707832853    3.64408992322470
P         1.76126263062009   14.60803489408982    1.72620014279043
N         2.09911127168839   13.09940704635260    2.47537373052366
P         0.74702510011695   15.45955423137332    5.86476198176744
N        -0.32349148444888   14.16923104998078    6.12974402731559
C        -2.06351337954457   17.19988803205960    2.12557415517338
C        -0.89336725543899   17.68579606948429    1.54909408680123
H         0.06503589746951   17.26345254836510    1.84948502546528
C        -0.93548280414934   18.72669861044477    0.63969233214104
H        -0.01988642007731   19.09193229276444    0.19838501757729
C        -2.14960779152015   19.30887290928137    0.31639444463968
H        -2.18893304067388   20.12507058878710   -0.38999238228124
C        -3.31365259041519   18.85802365380908    0.91809858423586
H        -4.25922298252605   19.32537003958581    0.68277982702970
C        -3.27547640864580   17.81252190542461    1.82296819988857
H        -4.18994673828881   17.47941814657067    2.29441916934273
C        -3.52389921800368   15.63340665463638    3.98858642565137
C        -4.24219048983046   14.44759657952698    3.91044599723158
H        -3.85575581056667   13.61792353274015    3.33871015683586
C        -5.46128315034859   14.33291397879297    4.55469929694604
H        -6.01959336385332   13.41051875270743    4.48309855858315
C        -5.96741867593759   15.39167578005416    5.28898061582620
H        -6.91783969528547   15.29645276350499    5.79299280470037
C        -5.25040493842547   16.57495972269055    5.37914387293027
H        -5.64282232538015   17.40311889364603    5.95181178065481
C        -4.03154639276770   16.69231347917854    4.74062387829646
H        -3.46162488285297   17.61108467201034    4.80859133730480
C        -0.79679224943543   13.42762889753107    2.56154840485731
C        -2.41665593165049   14.10177604689780    1.15139550298578
C        -3.43822770533976   14.74857160344079    0.47350033246199
H        -3.83680026975001   15.68650129085099    0.82109678348998
C        -3.93906470649009   14.15274429667575   -0.66706272089224
H        -4.73264013207045   14.64265883582425   -1.21201053734394
C        -3.44750923628469   12.93210956974225   -1.12788538452496
H        -3.86533044751248   12.49977591223410   -2.02536955056416
C        -2.44635237785470   12.27234744036207   -0.45070370404388
H        -2.06693140308133   11.32454025632412   -0.80214339242847
C        -1.92396871707212   12.85591702259816    0.70042549864706
C        -0.91234429358783   12.43619886770838    1.62092359692376
C        -0.22576578517621   11.11305149062022    1.55774908822949
H         0.17924159582435   10.83336304939772    2.52613215643382
H         0.58988991955276   11.13198770923689    0.83451688531413
H        -0.93575942970302   10.35064334615713    1.23964001918654
C         1.60431401204139   13.06637115695835   -0.62281745653354
H         2.35967876111896   12.43463741216343   -0.17930407607791
C         1.13889945241898   14.18153073285948    0.06616189673252
C         0.16693903213883   14.99142064954649   -0.51170124181393
H        -0.19743891640345   15.85666072936464    0.02499887023045
C        -0.33774001075239   14.68870211638485   -1.76298572185248
H        -1.09880161899288   15.31736455855173   -2.20051143709667
C         0.12226634930577   13.57370558231338   -2.44209842761917
H        -0.27790212018327   13.33059773528062   -3.41509118574276
C         1.09345410024275   12.76626866017550   -1.87203049771243
H         1.45327570594292   11.89642961389184   -2.40262152827786
C         3.42965666449665   15.25040719208251    1.42835183921940
C         3.86498809783429   15.72314843497243    0.19796595631633
H         3.21465444342273   15.66409277818989   -0.66482050030190
C         5.13476016537384   16.26360320927272    0.08746750813584
H         5.47971944768976   16.63034716423418   -0.86847489104207
C         5.95878883442140   16.33984502027458    1.19768387026324
H         6.94711394163202   16.76556160707844    1.10441101029299
C         5.51612202625290   15.88335848732671    2.43037653416843
H         6.15733854047081   15.95583246595412    3.29626484010819
C         4.25028338014114   15.34783324669769    2.55008814650688
H         3.88143731004079   14.99844085540914    3.51195800880906
C         1.33324744851869   12.77195695788829    3.61680507915652
C         3.23856457264042   12.31305726422630    2.48768594015881
C         4.30996917373795   12.24872230364374    1.61122728848442
H         4.37417416707251   12.89201792605956    0.74604602817355
C         5.31612929337527   11.34051480529049    1.88476059587223
H         6.16286877579760   11.27619992272257    1.21755802473767
C         5.25975484175198   10.50923536104742    3.00085372234739
H         6.06288672303334    9.80872742524520    3.17709505313237
C         4.19857357125513   10.57048792916532    3.87975040511906
H         4.15503204238347    9.92560270969268    4.74448260368386
C         3.17808730858035   11.48249160699469    3.62982448234746
C         1.96552409480305   11.79523394502498    4.33396615025696
C         1.54874501245341   11.10336955025079    5.58764424144597
H         2.31579739738838   11.22800610626399    6.35312166275421
H         1.43157549367934   10.03456910390638    5.40171080050874
H         0.60920360055509   11.49435808596825    5.96489560006264
C         0.10713350337466   16.79573997807019    6.90111708928130
C        -1.26157107889010   17.05033683213145    6.88715987694811
H        -1.92076889836469   16.40453932070692    6.32140975661144
C        -1.77055705722785   18.11397195049200    7.60594919780134
H        -2.83400698322504   18.30342056371646    7.60401576354281
C        -0.91732593374270   18.93737894925993    8.32435283965857
H        -1.31609780254262   19.77136891050808    8.88280594286952
C         0.44695181614915   18.69675316774000    8.32192139784614
H         1.11108556922143   19.34437801879456    8.87515919112783
C         0.96440872625759   17.62987666032616    7.60951634471463
H         2.02876405780118   17.44094436972929    7.60080788442223
C         2.30993989810326   14.94722981641407    6.64111613810400
C         3.47743378886344   15.55513686257268    6.18230657862252
H         3.40719507004622   16.34185568986168    5.43797827076244
C         4.70346694036371   15.15526459626413    6.68090445907679
H         5.60916959884926   15.62606598779102    6.32740455734255
C         4.77022273338359   14.14515900505827    7.62776672356580
H         5.72885834781063   13.82595842272868    8.00973301387148
C         3.60980182788299   13.54017276466321    8.08282671060780
H         3.66469637180390   12.75306762509991    8.82121911918942
C         2.37777106614472   13.93663175550484    7.59348755236332
H         1.47363861592492   13.45882666859812    7.94296279642355
C        -0.68928300714193   13.37524493899923    5.03269702373128
C        -1.12896235128563   13.83295435147239    7.19912480584886
C        -1.13884128283646   14.30068053652479    8.50435453778039
H        -0.43900164683136   15.05417917282782    8.83515941816269
C        -2.07202715964175   13.76446670974466    9.36939971797663
H        -2.10611265360824   14.11087933649422   10.39163397269215
C        -2.96740198963090   12.77992111113229    8.95111882323749
H        -3.68033050865734   12.38434284706200    9.65951985381230
C        -2.94927959931252   12.29983926049466    7.65951210026334
H        -3.63393338836106   11.52652787956366    7.34567485787573
C        -2.02044087839060   12.82735949230106    6.76572593460114
C        -1.72292427485960   12.55176540978586    5.38829143033345
C        -2.39612543830043   11.47474508458568    4.60751009178983
H        -2.24045843227281   11.59830910491812    3.54090567534529
H        -3.46439578633526   11.47873842741193    4.81735502688921
H        -2.00058703103596   10.50050732341982    4.90019154743360

