125
CSD_code = PEPJEA | q = 0 | S = 0 | Stoichiometry = C64H52Cl2N3P3Pd | MND = 4
Pd       11.56975790886112   10.98858066880569    2.14531956631867
P        13.29108330952035   11.20782129822850    3.61862723031620
N        12.78711488226721   11.87778705823981    5.13763078333348
C        11.19262391693252    9.97582344095071    5.31046616337354
H        11.36831220575099   10.14346995123548    4.23887092190660
Cl       10.29610175058794   11.21061952719295    0.23220606975954
P         9.79389274745227   11.89655526667442    3.24558132964375
N         9.22657457182898   11.35192585920843    4.76501961527515
Cl       13.45237807324722   10.32456296967396    1.02342296230183
P        10.57423659988944    8.27102900433055    2.89837302260331
N        11.10256006370940    7.69470828038889    4.44083632135851
C        14.27390271759405    9.82473614831017    4.28897055378943
C        14.31501427747907    8.59422525197794    3.64922677888124
H        13.78910101710764    8.46421145989771    2.71506959879742
C        15.03808296688490    7.54988516979184    4.19703207500473
H        15.06386211136007    6.59455719071975    3.69492386806943
C        15.73079520964389    7.72888131070580    5.38129367737153
H        16.29523511118387    6.91274780478263    5.80763819306796
C        15.69817373721346    8.95757725247400    6.02068433992410
H        16.23954141566456    9.10408835786745    6.94417014193681
C        14.96726982132251   10.00108911265482    5.48572692593265
H        14.93277547638160   10.94952068714166    6.00492433351777
C        14.50104892601822   12.40335472300470    2.98354812065568
C        14.03909992189323   13.30420438360670    2.02616098336186
H        13.00094563002171   13.24899950779150    1.69671912469828
C        14.90031833741174   14.23400498678317    1.47760019133636
H        14.54081646148878   14.93192331676228    0.73619806843947
C        16.23089289015069   14.25697697419085    1.86791728035391
H        16.90735334214235   14.97956656940631    1.43601531510116
C        16.69879857710689   13.34093805352713    2.79533838904942
H        17.74019484524797   13.34592187243360    3.08198320459267
C        15.84050588294657   12.40964998010959    3.35429231857382
H        16.21290981120111   11.69140418563781    4.06968091697476
C        11.94784329358150   11.10243220049238    5.95600926229673
C        13.12774530425722   13.01682856061672    5.84646051033633
C        13.86557332024580   14.13889986206770    5.49270219449749
H        14.30961207808497   14.24523436545294    4.51834356935720
C        14.00229927725698   15.14882536800826    6.42281933280073
H        14.57001897301524   16.02877309539389    6.15926776447591
C        13.41961223760432   15.06552726385233    7.68700197258862
H        13.55169808202248   15.87888828400104    8.38524932209863
C        12.67031247202218   13.96779100171190    8.04278670635603
H        12.19975602434659   13.90582753187589    9.01258501827007
C        12.51543033928633   12.93647498788134    7.11913299603663
C        11.76406653858753   11.71992077776491    7.15920891678637
C        10.93186281749444   11.28297159946818    8.31500727664892
H         9.95537500188112   11.76927407772684    8.28453896939365
H        11.41858937359420   11.55884627912051    9.24869328807405
H        10.78112523253806   10.21012821791201    8.29741738564447
C        10.24712280296583   13.62726590000734    3.55181052227922
C        10.76030422852674   14.32932305638220    2.46061321652079
H        10.76921785765961   13.85305805605930    1.48130441458700
C        11.24101321109829   15.61332032117760    2.63120073609781
H        11.63393805675970   16.16103559313705    1.78699702216095
C        11.23187898324757   16.19192940704852    3.89196324637264
H        11.62234020780446   17.18928513977206    4.02855477559305
C        10.73127317629458   15.49281967481963    4.97703609446662
H        10.73503796607490   15.94120523380131    5.95919000640831
C        10.23765455141102   14.21031080805649    4.81258099841760
H         9.85437313011275   13.66147072735734    5.66056203560640
C         8.23917562120783   11.90495249882771    2.30128377187592
C         7.75228568248961   13.01393008230561    1.62315130777867
H         8.27497535306115   13.95913881094481    1.67640746559147
C         6.59250420251480   12.90294930380596    0.87750321088741
H         6.21379218351283   13.76518055464260    0.34829457534580
C         5.92328075377892   11.69324174179383    0.80004486393620
H         5.02294283784183   11.61271734896827    0.20912848657173
C         6.41316810093669   10.58438948573997    1.47123121727752
H         5.90167661004134    9.63518818286653    1.40645342597605
C         7.56911122470378   10.68843596067745    2.21809221454916
H         7.96388506109882    9.82131512483629    2.73381955063558
C         9.72907750109429   10.25914897207219    5.49467329048622
C         7.93736978543490   11.59315833250036    5.22546052107715
C         7.05468961071140   12.61883225619438    4.92609110775079
H         7.31766541101855   13.40079722160506    4.23070939240578
C         5.83239954870639   12.62447935390825    5.56837449811422
H         5.12668758212787   13.41248420792622    5.35280167844946
C         5.49578244489372   11.64053200243860    6.49730000045086
H         4.52843754077341   11.67786313040667    6.97597967677209
C         6.38486378817225   10.64076239278991    6.82697444393607
H         6.13580007637805    9.89703550351944    7.56868318392892
C         7.62397278048073   10.61830704816761    6.19249501756410
C         8.78212425392631    9.78433154458809    6.35226450967821
C         8.83188261367381    8.64623672890743    7.31675258222469
H         9.75592512774995    8.08470261880529    7.22599440469940
H         7.99394297094191    7.97240882296550    7.13623521041726
H         8.73700652517604    9.01417975082056    8.33868687727232
C        11.60303438897664    7.41612178884704    1.64314824709222
C        11.37743099864426    7.88335063724993    0.34752881483162
H        10.65573159232143    8.67658837661403    0.18347387810430
C        12.08807199230181    7.36319090515349   -0.71732708199049
H        11.90919080407518    7.73661740024211   -1.71469421512662
C        13.04311566844089    6.38431476775598   -0.49718305258717
H        13.60785308978069    5.98232114288952   -1.32554734816579
C        13.28718149798590    5.93632059009712    0.78971007515234
H        14.04334247007415    5.18439246846759    0.96587429395389
C        12.57569382138148    6.44903031445861    1.86119022352665
H        12.79263929261466    6.10119907741364    2.85885508737200
C         9.01324503405702    7.31687306795023    2.74484878605405
C         8.16464643330335    7.29425917218731    3.84834524165142
H         8.48227017014212    7.75650934475819    4.77071958403273
C         6.92875120640857    6.68254132321256    3.76950602455785
H         6.28097526023865    6.66652613628273    4.63403006732680
C         6.51828010592105    6.09918764658749    2.58184854672244
H         5.55114108347826    5.62271905798378    2.51733530883507
C         7.35115337163821    6.13370873169179    1.47626308924278
H         7.03443404239590    5.68361312931299    0.54655310134164
C         8.59025185520569    6.74521104072585    1.55098866692972
H         9.22968962573319    6.76687932791119    0.68067142054944
C        11.54791794586386    8.53544198686969    5.47476772523782
C        11.34741623360465    6.39299361084820    4.83932369958974
C        10.99582480473035    5.18747006175158    4.24814513216192
H        10.44784064042636    5.16161069859613    3.31828169324240
C        11.36718220040058    4.02279186356941    4.88814516688269
H        11.10432618963632    3.07164158712466    4.44978410246829
C        12.07202133110845    4.04848403587026    6.09238104083856
H        12.34918507694183    3.11476690989885    6.55925115855543
C        12.40250442031162    5.24111910851241    6.69724101310976
H        12.92871107436337    5.25988118547708    7.63987235917669
C        12.02867180214185    6.42989559598317    6.07511589419168
C        12.14604978056950    7.80769552514612    6.45763013793510
C        12.78834963211937    8.27972815863800    7.71706531064650
H        13.72802033455362    7.75080599804037    7.86683962858684
H        12.15033674197598    8.07562216549221    8.57839742156032
H        12.99024373839556    9.34536206186724    7.67162733093930

