89
CSD_code = PEPNON | q = 0 | S = 0 | Stoichiometry = C26H58BN2SiTa | MND = 4
Ta        0.74209727461806    3.26882874100016    7.14777469022255
Si       -2.24647776924856    2.98813467598625    6.44247743244221
N        -1.96144522286566    4.31791178215379    7.52866760242030
N        -0.22920050702217    3.68718989788659    9.12033446257349
C        -0.65961911368240    2.81516826057399    5.40154598568358
C         1.57594273870991    1.08961370602195    7.20769514918784
C         2.22084229971421    4.36490533223639    6.28031530713560
C        -2.65120264002540    4.38331811135479   10.13841249757381
C        -2.12852567563765    5.71663472732265    7.11153147932231
C         0.50013359816642    3.56798333350972   10.38681121059468
C        -2.31338908016020    1.32923502918421    7.39440565259650
C        -3.83883416871243    3.04630156882005    5.37931181655677
C         2.91638538366921    0.65672181999307    6.62146112174604
C         3.14716784215838   -0.83091885514423    6.93479604993878
C         2.90689911892914    0.84075263708763    5.10142454433626
C         4.05936752173076    1.47138242178077    7.23307663594481
C         3.00807000092502    5.62357150784838    6.53969707003390
C         3.00900031507337    6.02148165115943    8.01885380950768
C         4.46607664065868    5.45622910319288    6.07868255279108
C         2.37100184777970    6.76594501443149    5.72311658281802
C        -3.90377558712114    3.51310368912479   10.39586326632368
C        -3.52917559657906    2.07646345280022   10.76650053734234
C        -4.67534954236179    4.12129374928823   11.57759425569552
C        -4.83528452981836    3.49835271853593    9.18421507732543
C        -1.25719576765375    6.64018387926978    7.97661964559751
C        -1.66269937342960    5.92121186148279    5.66268481968215
C        -3.59301688230116    6.17438379046357    7.19800430872354
C         1.94722788952360    3.08564547775240   10.15712160932109
C         0.60564732982011    4.93911445404234   11.08526584548009
C        -0.13492430570572    2.53854887510217   11.33952441250270
B        -1.56618142952783    4.04889371140151    8.96712567735240
H        -0.52249636307950    1.80906330573018    5.00269431498374
H        -0.58468096365189    3.51124762170608    4.56848634598606
H         0.78344057647543    0.51462965890042    6.71454451047649
H         1.55311896745463    0.80028556957327    8.26309513304983
H         2.46099151812500    4.03461809243402    5.26315572787629
H        -2.14514756828012    4.46305691455586   11.10124880577943
H        -3.03106864441301    5.38785263367602    9.93324091419881
H        -1.58997374151374    1.31081803961417    8.20402050566979
H        -3.29121398757365    1.12167453706531    7.81361028035587
H        -2.07599142491787    0.50929655313535    6.72211671518191
H        -3.83225061733581    3.85914961538219    4.66242697882338
H        -3.92122146094927    2.12274375474488    4.81614169063163
H        -4.73699765896270    3.14194755557378    5.97990314648140
H         3.18635456306226   -0.99687458716869    8.00946994698559
H         2.34511571860918   -1.44039185011904    6.52339334754055
H         4.08741351845494   -1.16866448801353    6.50373683800712
H         2.14208457571696    0.21441137163517    4.64676534800669
H         2.69854748428551    1.87810631227143    4.85090852759059
H         3.86982889243727    0.56246870877550    4.67875730453969
H         3.90896525202241    2.52846574674252    7.02313743404077
H         4.09417228381953    1.33108822947450    8.31115753400270
H         5.01404466098753    1.15759115365050    6.81673985055820
H         1.99114982516489    6.04578419650637    8.40516949996536
H         3.59632871512809    5.31415167048395    8.60014300436134
H         3.44960421944773    7.00912267395192    8.14352038297532
H         4.94356908030253    4.64204522857278    6.61838679552432
H         4.50714368368574    5.23323930423363    5.01549681647329
H         5.02981423745182    6.36908317635342    6.26146743790109
H         2.32612620573135    6.49946868359883    4.67010521042172
H         1.36068119122516    6.95970709971867    6.07379348843991
H         2.95649065927452    7.67788122852135    5.82466024591730
H        -2.84349871110280    1.65739743428841   10.03883429423532
H        -3.05863575758890    2.03822207009752   11.74655159973340
H        -4.42028142796341    1.45125510055905   10.80432323019831
H        -4.06083498548857    4.14219803728668   12.47628085208500
H        -4.98563636919041    5.14097032388010   11.35581855779229
H        -5.56697038858130    3.53395684110478   11.79065097578999
H        -5.24355056717757    4.48929599456587    9.00091885604530
H        -4.29995904203613    3.17761386844931    8.29846648797498
H        -5.66991198767386    2.81948094687565    9.35608986212030
H        -0.21730051332342    6.32183860995755    7.91759060100395
H        -1.33303246515272    7.66445294741392    7.61638425120244
H        -1.55967789039429    6.62142926214954    9.01817613419508
H        -2.27298799617399    5.35232529395390    4.97011518088099
H        -1.74806370454115    6.97395233992244    5.39950196703015
H        -0.62246096611067    5.61965961476504    5.55166688851085
H        -3.94214430743882    6.16821397621062    8.22499234786481
H        -3.69021701552768    7.18676038986349    6.81097382707246
H        -4.22606165498950    5.51491771565695    6.61248645877821
H         1.96279181238183    2.04165782411326    9.85450169824136
H         2.45799094205394    3.68506642602268    9.40577170067390
H         2.49868701172390    3.16911777316218   11.09245943709178
H         1.20643073230377    5.61629893633404   10.48274612936791
H        -0.37033027205827    5.39056887096184   11.22545323224886
H         1.07925745092088    4.82720162604447   12.05819096302765
H        -1.06430227068918    2.90262081962704   11.75714461291851
H        -0.33619075070287    1.61157654760968   10.80580874286310
H         0.54768508671624    2.32349657217916   12.15959591953245

