75
CSD_code = PEPPAE | q = 0 | S = 0 | Stoichiometry = C27H42FeP4Se | MND = 6
Se        5.90541178031542    4.25725834133738    2.85035202146512
Fe        5.57101868728188    2.17170766080288    1.73492242376691
H         5.12526889758914    1.65228287016695    3.02045891400020
C         5.99733059983829    4.82521865738653   -0.41180054419399
H         6.34476573119837    5.09951974274286   -1.40930246882507
H         6.58384421004991    5.34765675004041    0.34583640583826
H         4.94960318702182    5.10302825421381   -0.29124919935762
C         5.36227655763560    2.48847227092539   -1.72557458305083
H         5.79738811154613    3.03538538620855   -2.56351176304886
H         4.29934527386864    2.71752883967118   -1.66099074488779
H         5.49241195201728    1.41999501840795   -1.88448800929097
C         7.93037908180828    2.86250918585442   -0.65901204652559
H         8.04849131099638    3.06358353812827   -1.72471165212926
H         8.30232602497652    1.86595400989616   -0.42430850392907
H         8.49739455529114    3.59675709343430   -0.08787559378628
C         8.90708172589975    2.97906710239288    2.61537947490867
H         9.50907901500613    2.86413852479236    3.51761671318399
H         8.50566982876202    3.99348850323868    2.58468834080816
H         9.53323127674978    2.80539966432984    1.74155533635656
C         8.62175469285194    0.27016973310403    2.37995043855311
H         9.46089793779103    0.33136051495056    3.07437125267931
H         9.00722462170699    0.27133306054784    1.36118774680690
H         8.07575406657384   -0.65306961302468    2.56315572775093
C         7.34119099531367    1.56236033291072    4.46489591743910
H         8.30630346246802    1.40242772002223    4.94814174231224
H         6.67871892471829    0.72033276677762    4.66423922931587
H         6.87484061060185    2.47129800185875    4.84594677491324
C         6.53989340104545   -0.62782901885286   -0.14675063279945
H         6.08297985264784   -1.48169664303362   -0.64793634428685
H         7.38788997092490   -0.97266871332026    0.43807227413419
H         6.89382367379813    0.08282276242637   -0.89110749981033
C         5.15154179110840   -1.13810936130102    2.23519891894091
H         5.28467394692089   -2.12595190792805    1.79136260924579
H         4.16201645188166   -1.06509289744473    2.68517575256032
H         5.89739992191874   -0.96802761637992    3.00960249328967
C         3.79876545739471   -0.28649563599696   -0.01188742409455
H         3.78257645318971   -1.36810962016138   -0.15737504001802
H         3.81083139771939    0.20974306573649   -0.98045264279988
H         2.90966191331939    0.01392828374201    0.54025125943017
C         2.62603159615586    3.62409443115020    0.45825578119863
C         2.16591440508414    2.98506305893643   -0.69204790637604
H         2.23227777713558    1.90828245092167   -0.77061403961667
C         1.61565945773338    3.71621758915289   -1.72930693735823
H         1.24856915074532    3.20676340901382   -2.60979397096169
C         1.54165039804123    5.09698859235053   -1.64461987563834
H         1.11346893652249    5.66649416103628   -2.45652994020838
C         2.02609192332022    5.74313223037265   -0.51966954067468
H         1.98340882922906    6.82084373073122   -0.45353734985638
C         2.56820785720059    5.01423461716653    0.52374508925266
H         2.94999164925404    5.52535122498220    1.39813568852759
C         3.14234943156287    3.82399232412096    3.19230754882115
C         4.23604069827947    4.53117085399962    3.69114371331049
C         4.06702088245612    5.42639069827958    4.74470903946209
H         4.92758876212746    5.96736628839854    5.11317231761537
C         2.81325526769292    5.60311348392286    5.29421878947480
H         2.68108496191296    6.29000362643623    6.11814090906629
C         1.72047463928249    4.90642788170128    4.79465489183344
H         0.74080583633724    5.05345217038350    5.22585754555236
C         1.88181271034927    4.02295898170940    3.74360498236704
H         1.02789456189712    3.48829596700355    3.34895153111790
C         2.19192164989988    1.46295259616377    2.28793629688338
C         2.49752614733002    0.71743043059693    3.42359875349496
H         3.45558631109527    0.87419130067789    3.90135146688794
C         1.59407932692670   -0.19072645625056    3.93992942115390
H         1.84672575419220   -0.76227340701883    4.82196565164431
C         0.36075019673006   -0.36028269511441    3.33145290648772
H        -0.34846281113758   -1.07157533802694    3.72893914070653
C         0.03380881854689    0.40140621301303    2.22322235579417
H        -0.93659464221061    0.29305035655228    1.75957084910200
C         0.93676584406112    1.31529867632408    1.70621158632008
H         0.64910577673795    1.91906521685884    0.85784652532476
P         6.16963496796167    3.02274482397195   -0.16946868803041
P         7.54549330009235    1.74014535004078    2.65791820458577
P         5.29288336441575    0.16648961143620    0.95604203794553
P         3.45361891124270    2.69586892040561    1.79757814993124

