52
CSD_code = PEPQIM | q = 0 | S = 0 | Stoichiometry = C14H31Br3OP2Zn | MND = 4
Br        2.83252987379552   13.94507033783352    1.13372254016911
Br        2.78266205810659   10.41348568099098    3.86470781957420
Br        1.78324615306227   14.18491673985251    5.19880670084682
Zn        2.44658651529578   12.76069630715094    3.23988544398690
P        -1.10643130912112   15.13182799057259    2.29369017157012
P        -1.15069335398378   11.36437005818000    4.68115835606767
O         0.30567023362334   12.47735260106299    2.82262904526764
C        -0.68760327911433   12.75919209092863    3.52049606544424
C        -1.48525245788169   13.86337973245148    3.46551046785899
H        -2.29498085618651   14.02127471679102    4.15776901713414
C         0.33354824893114   16.16519396522866    2.71917743552503
H         0.18197108800058   16.52694969060297    3.74038143112561
H         1.20119953830346   15.50517382963110    2.73375541857191
C         0.58595671881900   17.29758425311334    1.73196896191627
H         0.92035064661355   16.90021723073952    0.77711354523422
H         1.37937968161153   17.93200228507444    2.11889569835053
H        -0.29819927211980   17.91302491080006    1.57716113371834
C        -0.86689475633070    9.83690279556311    3.73143163250956
H         0.20936256839871    9.80090093386327    3.52646131037804
H        -1.11128404734131    8.99094452069961    4.37950403859994
C        -1.65726998526507    9.79654613607822    2.42906000762183
H        -2.73049619515669    9.85909515498215    2.60451944859646
H        -1.44965791932038    8.86724151350865    1.90436051430465
H        -1.35739858579923   10.61969879212493    1.78398728752251
C        -0.10346280884678   11.23618931871465    6.16966026183438
H        -0.18408876346319   10.20516294578384    6.52788096793431
H         0.92796195619474   11.38565436124682    5.83997721362462
C        -0.46145716543888   12.24705768666213    7.25059049410861
H        -0.38582733166520   13.26088451731871    6.86324784577051
H         0.24837226012327   12.15791561009504    8.06864740377608
H        -1.46131455533715   12.08163441448647    7.64602061561192
C        -2.91482373678688   11.45890134220857    5.19108132070003
H        -3.02066768010712   12.34690439424661    5.81916237097445
H        -3.51311582697283   11.61197073871246    4.28907938095336
C        -3.37983586294772   10.21716634198353    5.94098490778918
H        -3.34020219872756    9.33718808467085    5.30370296232405
H        -4.40826734009431   10.34762408805164    6.27140470848446
H        -2.76314004658122   10.03597629061100    6.81792385676018
C        -2.59495662565167   16.19903386097513    2.23748345046129
H        -2.53986481908102   16.82091468114394    1.34151974424653
H        -3.45904651191554   15.53734122479221    2.13684277061926
C        -2.72849679689633   17.06033747901956    3.48757772283212
H        -2.65788067342139   16.45257278126489    4.38736931677260
H        -3.69022533879441   17.56922249754469    3.49228247832234
H        -1.94636534641744   17.81382825186471    3.52654143524970
C        -0.84990075827634   14.45208693652525    0.61828722136887
H        -0.68173268391513   15.29349157056119   -0.05779602584411
H         0.07172965944347   13.86577059515547    0.64995560519107
C        -2.02071054346885   13.59844970084047    0.14978471524031
H        -2.22788601231962   12.80766933005865    0.86864268982580
H        -1.77943189470382   13.13693988384676   -0.80455368765615
H        -2.92216386087401   14.19506880379122    0.02224476082089

