47
CSD_code = PEPSEK | q = 0 | S = 0 | Stoichiometry = C12H22Cl2N2O8Pt | MND = 6
Pt       10.80298343607848    7.72425987156761    7.54473710259965
Cl        9.23420687097259    6.32310260518064    6.65182157960902
Cl        9.17680925915412    9.13278397386026    8.27371681053839
O        10.77372875931320    8.68930171012114    5.70173998756332
O        12.39864311106271   10.18656459038600    5.98714612349350
O        10.64864610004529   12.55449933652799    2.31943068883902
O        10.68662365020034    6.58263967252072    9.26370741584576
O        11.31280420339185    8.18362731187598   10.67669041410962
O        11.50721852459347    5.04147487614239   13.95495126234460
N        12.45003676601059    6.44437560153043    6.90463177035059
H        12.43798315088226    5.64583964188487    7.53989148966533
H        12.31128739943537    6.10550876098852    5.95447835240596
N        12.41322358686778    8.88423286610218    8.33019662216669
H        12.53515484351938    9.66690892304059    7.66155401388277
H        12.14786490426747    9.19576505566517    9.27213941494714
O        12.61701865811235   12.16603866700017    1.32320240438434
O        10.14007408810090    6.33118277855198   15.17262529582796
C        13.67509368186173    7.23966315399198    7.05134035100294
H        13.72982290623315    7.94723300571851    6.21934643529612
H        14.57001901714809    6.60710359051374    7.04050201317096
C        13.59722137811470    8.03122852500788    8.36006570904417
H        13.51720432640651    7.34369415385457    9.20830628986385
H        14.50738393554282    8.62929266292211    8.48187552356895
C        11.46258350350989    9.70227002747081    5.35740962720720
C        11.03032198199458   10.28761683187714    4.01541574945641
H        10.26261870993041   11.03482874607892    4.23638952602332
H        10.56794178889858    9.50332125711689    3.41741099714899
C        12.18785461170622   10.96449363433468    3.29307134126167
H        12.79032369812755   11.50236527623793    4.03213136771253
H        12.83717737216461   10.24645363486946    2.79185841655116
C        11.70048191039518   11.97656496363481    2.28167739318206
C        12.29181605972239   13.12841495838792    0.32785766856734
H        11.36796505587996   12.84751764632106   -0.18176837021375
H        13.12609071103984   13.13955612203965   -0.36874071285351
H        12.15686427771984   14.11207522809077    0.78199395017693
C        10.84278724013723    7.08461443080962   10.43217973335876
C        10.44795935491255    6.10878045949455   11.54051034493733
H         9.55291091321330    5.57477723290621   11.22511454786728
H        11.25884521548137    5.37928150140553   11.63198052936324
C        10.26565759856681    6.81250128889520   12.87873074890871
H        10.88791350680356    7.71432210964861   12.88250755068119
H         9.23629218266823    7.12632882138461   13.04484886343927
C        10.71859179476025    5.94749837996082   14.03036903295608
C        10.51572454472665    5.61489519443570   16.34168821113441
H        10.30296037899838    4.55114268408294   16.21846974786703
H         9.92810543056166    6.03149132033154   17.15535533626247
H        11.58285960078106    5.73946691524463   16.53614132847007

