53
CSD_code = PEPWUE | q = 0 | S = 0 | Stoichiometry = C18H26Cl2FeN4O2 | MND = 6
Fe       -0.33695367535963   -7.71877514459927    2.91747529123548
Cl       -0.88341742401986   -9.81523829884878    3.33094679726551
Cl       -2.33787308031077   -7.10643989161033    3.65122966934844
O         0.84438133563395   -9.13461222276049    5.41343408178548
O         2.65309995402200   -7.67604881699937    3.78179728444284
N         1.28436167828078   -8.39559547857008    2.13881212590886
N        -1.07134329184189   -7.93672649647843    0.95586036825801
N         0.09385238628426   -5.75309549658653    2.39564803928716
N         0.30483833740070   -7.10769499629619    4.66500589085240
C         2.51894010159638   -8.43188387879666    2.66658377177309
C         3.57155575792618   -9.12943910935217    2.09332882649906
H         4.53804673816842   -9.15545241652014    2.56749435767665
C         3.36885659062203   -9.78978929370468    0.89074118196662
H         4.17164392058937  -10.33630657139662    0.42275375599404
C         2.11219891579690   -9.72202367528036    0.31383309324839
H         1.90213002466911  -10.21516101962188   -0.62190001889078
C         1.10339170352779   -9.03987508151373    0.96908681175571
C        -0.29515591429867   -9.05582775825007    0.43128598307983
H        -0.30138427425773   -9.08308016117081   -0.66834814300589
H        -0.76222405406603   -9.96962523975525    0.81398047587351
C        -2.49484207693449   -8.22622202638447    0.81524750258190
H        -2.73637257753957   -9.07540309473711    1.45151248934923
H        -2.75163744048450   -8.45231851001170   -0.22655850683947
H        -3.07889588924352   -7.37980322870362    1.16421620319190
C        -0.72182255328881   -6.67417251527661    0.29060120373830
H        -1.38271861723941   -6.49100710071132   -0.56657306119730
H         0.30196784778317   -6.74858134780231   -0.08353560401220
C        -0.82539729000704   -5.51636195401404    1.28312752496062
H        -0.61996765359068   -4.55996232489353    0.78112372601475
H        -1.83714512822957   -5.50125766824373    1.69145658553263
C         1.46403641866733   -5.43579592434277    2.02561777353462
H         2.11023616465309   -5.63863939604977    2.87443724938545
H         1.56037186754092   -4.37869037070204    1.74331295419715
H         1.79629185943721   -6.04984651725028    1.19305304137425
C        -0.23708009398642   -5.00488164815627    3.61005819757450
H        -1.32522469353630   -4.92346190780029    3.67760715961273
H         0.19902573332811   -3.99710605282873    3.60446592734558
C         0.20730046798713   -5.78048189631314    4.82019936177249
C         0.41917530051220   -5.15851185994552    6.03830925665668
H         0.32768980309101   -4.08704072749510    6.11865536268046
C         0.71078926855249   -5.93646082051344    7.14804841235782
H         0.85021183595647   -5.48401236777069    8.11773076936247
C         0.82850876104966   -7.30589096198026    6.99199765750767
H         1.06317411008246   -7.93730145494800    7.83298909120434
C         0.64776616863967   -7.85234910650716    5.72236910229684
C         3.77977210267668   -7.86671571088125    4.60478183297748
H         4.69382081838007   -7.49188080879460    4.13133980492856
H         3.90720312444667   -8.92013511953606    4.86680413445602
H         3.58386048864680   -7.28996948903758    5.50819481573015
C         0.83637210696281  -10.11236254060436    6.42707902845175
H        -0.02545217454641   -9.99259624692612    7.08817070782188
H         1.76115388295046  -10.08988344448125    7.01598107953317
H         0.75278232691958  -11.06260480824307    5.90252957156038

