91
CSD_code = PEQCIY | q = 0 | S = 0 | Stoichiometry = C32H50N6O2Ti | MND = 6
Ti        6.26229647396875    8.45951665369634    3.98979741063432
O         5.58128548368094    9.65257458476945    5.14424537679683
N         8.33960138344064    8.67473407853895    4.83011105432780
N         5.86719992609132    4.88207491478775    5.41127119621376
O         9.48283934216869   10.38850385915981    3.68556938046671
N         7.61333470687241    9.44374880043028    2.82453015567937
N         6.60612337699801    6.38213129911721    3.71326180477761
N         5.55340201290089    7.27001714379081    5.38849719175581
C         6.39474889831740    7.88070480325151    7.69072011316504
H         7.11797950733364    8.60038932690137    7.29805113456451
C         5.98666925440739    6.14131282113314    4.87878306928377
C         7.64288967265703    5.39487654868153    1.77165482243344
C         8.46421426780848    9.49062766894008    3.83034555266016
C         6.52039680874924    5.53733320263516    2.61245292411505
C         3.62250906138978    9.10640465974333    2.82616138685086
H         3.54756703450657   10.01247859098027    2.19757809250109
H         3.42925325103193    9.38896064264818    3.86108337285415
H         2.82644492328610    8.41583349213239    2.49523578070347
C         4.83712696649136    9.27403762094791    6.24485122686415
H         3.75675193034411    9.28906298208821    5.99669653540485
H         4.99875946076887    9.99077876670520    7.06550874676177
C         9.92097044940541    7.68422061654366    6.35857393537216
N         4.92193557601779    8.49411827421301    2.70853400530602
C         9.17252772352883    9.96086543495196    6.74172158140495
C         6.83829813186319   11.49050010902131    1.65634892150275
H         5.99187778485564   10.92072075835215    1.25752364944143
C         9.16146228548974    8.79323216894111    5.95990237148513
C        10.68698122058897    7.75644811961600    7.51101744534646
H        11.27364293537316    6.89825640054837    7.80940960295194
C         5.22706110652220    7.82119630471827    6.67482080528286
H         4.36233789212593    7.32629357594474    7.15263382129226
C         5.30242495637671    4.05406407029873    1.14240217851384
H         4.37949164465299    3.55476097823034    0.87936382248865
C         5.31950381417187    4.89084367062275    2.24836695471858
C         8.33052725394255   11.14696393240057    6.37369818520544
H         8.12157272353936   11.75231738721134    7.25468191773209
H         7.38793348863583   10.82519588733402    5.92285121440460
H         8.85674746891615   11.76939281302827    5.64897052024049
C         7.11371143391231    6.54929345289088    7.88232968982879
H         7.99070489071875    6.70079438533168    8.50826353959181
H         7.44565621016229    6.14764451742688    6.93123839263397
H         6.46281017679438    5.82898893872284    8.37460475264415
C         8.90531501321827    6.15357603194323    2.06023955155562
H         9.54682575652109    5.58590958163856    2.73498586856746
H         8.66995435940780    7.11074789564041    2.53225245083032
H         9.46001450542328    6.32727510240803    1.13939332799868
C         7.58238374144484    4.55956579514367    0.66899182165549
H         8.45629324524302    4.45333220352183    0.04126632572094
C         5.16845209860133    8.12036745780806    1.33598891150628
H         4.48281439792676    7.32133207218370    1.00796856427886
H         6.19407285678283    7.76681026836701    1.21572124411663
H         5.00985660013984    8.97692056405072    0.65710534657338
C         4.02807291603031    5.14539637036317    2.97621181277399
H         3.19619051401792    5.07607313602212    2.27561749653083
H         4.03294966955807    6.14139560632055    3.42495674913955
H         3.85589831847273    4.40848646441664    3.75987707782549
C         9.95123980521229    9.99685781869488    7.88908718689353
H         9.95692467715887   10.89542726092970    8.49095579248189
C         7.97372363775399   10.46415192226427    1.86214476526828
H         8.17810548656929    9.99219219798469    0.88695852398804
C         9.91435098025842    6.43587889769273    5.52717850491477
H         8.95488127202657    6.33791805071287    5.01917714567363
H        10.10232877311192    5.55854104258896    6.14432631228827
H        10.69666343238447    6.49255685553392    4.76855230919289
C         6.70136656358935    3.78941535241647    4.97599419799695
H         6.16984234933132    3.11241129309991    4.29751048449945
H         7.02669926636528    3.22258027453216    5.85291066615841
H         7.57792190618149    4.17506987314410    4.46189340317354
C         4.82930275499590    4.52422122328876    6.34497514053650
H         5.23999041345251    4.30168076094825    7.33497479328140
H         4.30910268062996    3.62920415520639    5.98858759862142
H         4.10990913479956    5.33331286623391    6.42550676625401
C         6.42756537425313    3.86278376950058    0.36278931015922
H         6.39628356790392    3.20184155825393   -0.49037461747842
C         5.89514013841831    8.36109451964631    9.05408010903150
H         5.17538072113266    7.65468131862028    9.46594666271605
H         5.41885862625546    9.33576321644089    8.99580325644279
H         6.73363548100460    8.43633155055129    9.74273635972651
C        10.71035328528187    8.90802240540845    8.27613953947661
H        11.31205039212184    8.95521948190018    9.17220147249290
C         9.28407361111707   11.05432450094725    2.45118964606389
H        10.14892008365799   10.86187855024799    1.80823531179405
H         9.21925992325357   12.12861303529928    2.64427620014551
C         7.23597787119584   12.54853094792403    0.62851511140657
H         8.05365921047788   13.16603767246000    0.99324925556403
H         6.39041420306245   13.19909148332282    0.41699108900015
H         7.55020423988736   12.08152656914898   -0.30257510184056
C         6.38824863720545   12.12176135498419    2.97240043337398
H         6.05697193277305   11.33980563757941    3.66197775935374
H         5.55707254618138   12.80050812969051    2.79070575676343
H         7.19241011741886   12.69156164559270    3.43513866930315

