65
CSD_code = PEQCUK | q = 0 | S = 0 | Stoichiometry = C24H34N6Ti | MND = 6
Ti        3.88676379173662   -0.87004029857036    4.16741445542256
N         3.13816242861886   -2.02417651779867    5.40237626585065
N         5.43663338540740   -0.29230796135008    5.34959448961607
N         4.74169522085884   -2.11125511909288    3.10058919763775
N         2.26214393233035   -0.56831694468162    2.98594683497516
C         2.88373512087267    0.35802071150452    2.28212767342467
C         4.98235341178722    1.47701263191810    1.97680198720883
C         4.71007935438629    0.66125923849243    5.89894285883942
N         3.50694760134075    0.84230731363919    5.41331743975632
C         5.92995894852631    2.16140682918235    2.75186488898662
H         5.90980025254697    2.01433812677635    3.82400518814737
N         4.12107987926403    0.62459559599245    2.62969590957635
C         2.53290504645014    1.65876581086010    5.94904033488733
C         3.86336943829522   -3.10998981502210    6.01134158488024
H         4.08205355008271   -2.89715877344716    7.07435348316738
H         4.80805081581275   -3.25846724554041    5.48136985768480
H         3.28151258108885   -4.04887011664133    5.98183076679031
C         0.59530380180147    0.60053837390593    1.75960174509953
H         0.21181366623284    1.36559728096750    2.43694183419834
H        -0.12901704371784    0.44480167061698    0.96178684364300
C         5.02081326518248    1.65194083162316    0.58744861367380
H         4.33602708265207    1.10315591026696   -0.04166600792473
C         5.95574787396901    2.48953980064774    0.00984480326009
H         5.97119013036671    2.60737576063100   -1.06491317707430
C         1.86169066070650   -1.83240009638587    6.03765810154164
H         1.21845424940907   -2.72437735299168    5.92222660310050
H         1.35001235592914   -0.97164991836034    5.59918804157795
H         1.97321555164036   -1.65332705510154    7.12289649177339
C         0.88468821917693   -0.69188433849564    2.55119365539138
H         0.21356263916835   -0.81232604832153    3.40722096091950
H         0.77765614571470   -1.57852206536608    1.90640908101378
C         6.85547448962998    2.99847301438431    2.16651699657557
H         7.57297552456367    3.52228775980681    2.78310927733564
C         4.06229178870908   -3.24714340939372    2.53215289206255
H         3.83923088350119   -3.08622387855411    1.46070761633595
H         3.12195959249437   -3.41262163664116    3.06566612133848
H         4.68089056856214   -4.16000165850934    2.60085838624182
C         6.77986592316489   -0.28552201324248    5.89238791690669
H         7.47497412920553    0.16667497854153    5.16723167505190
H         7.11915093958349   -1.30699487775577    6.09424175924688
C         0.43041554399926    3.23421701469713    6.90864642869259
H        -0.38105074764779    3.84225939391819    7.27989050672292
C         1.14273146538822    2.41835098535796    7.77211071076490
H         0.88125082232321    2.38679411966655    8.82082203907226
C         6.69887643402395    0.57117593747772    7.17592779505643
H         7.61312534839586    1.13570888948301    7.35055424166639
H         6.51940218589639   -0.07428214812950    8.03736360441228
C         1.97874967394557    1.00279140856700    1.24182910147819
H         2.16518287063693    0.55580818845619    0.26189436922208
H         2.12844938957579    2.07962564683490    1.16754281980245
C         2.18170511631593    1.63784715141785    7.30438302237937
H         2.71067981838185    0.97687630927020    7.97789748936340
C         6.87233368648524    3.17291426717663    0.79048198576449
H         7.59814122233249    3.82796060108403    0.33220362990961
C         1.79808122676907    2.48049289093418    5.08551329547153
H         2.06754266870047    2.49122398968456    4.03758554083954
C         6.01284060176890   -1.88821447112823    2.46368023893475
H         6.67197476431937   -2.76855865301174    2.57209224118545
H         6.50695074479465   -1.02339173995848    2.91425632598424
H         5.89817157335384   -1.69948966249923    1.38004122403856
C         5.48086536119756    1.46703974002289    6.93493340938275
H         4.90901831869960    1.66768549763700    7.83810192832405
H         5.76340076320778    2.42799799520793    6.49477492471949
C         0.76272674335962    3.25727913816028    5.56259244425229
H         0.20801720672943    3.88977301117795    4.88315723442219

