86
CSD_code = PEQFIC | q = 0 | S = 0 | Stoichiometry = C35H44BClFeN2O2 | MND = 8
Fe       -0.21813567018309    2.90633318836478   10.35201270772937
C        -1.38754874531072    3.74363461446002    9.40505098383940
O        -2.17155749421218    4.24499477016844    8.72344553035138
C        -0.15529328948563    1.83544360846661    8.98950236563170
O        -0.33019717730661    1.10264714615931    8.11817592860680
C         0.87938098916600    1.89090133932035   11.95760875678649
C         0.71430939594047    3.24076787044004   12.37376875277836
C        -0.67982281304367    3.52360696853866   12.40093532386686
C        -1.38481477917281    2.32360573162489   12.06269999938793
C        -0.42445478685589    1.31615594630963   11.79198118967238
C        -0.71580406952453   -0.13096757170722   11.54418425592024
C        -2.86630378058735    2.12835717932896   12.14290449912359
C        -1.30186945853722    4.77207176301515   12.94067732208295
C         1.80262196551494    4.13986518300084   12.86335190817622
C         2.16367815111559    1.12438737906607   12.02966752118504
B         0.79740450737133    4.33027699234681    9.50068961984368
Cl        0.57590307854277    5.87262973985237   10.26686519778720
N         1.66037343807594    4.36030733707114    8.38671230613452
C         2.16314479791319    3.26120497052580    7.67956906243565
C         2.51265861096074    2.13553502878357    8.33671706050776
C         2.97054845967156    0.89849651297405    7.74485893046540
N         3.28216107370197    0.83091117662042    6.51458617571201
C         3.65719992391671   -0.30048181289731    5.81934908698050
C         2.73815508046333   -1.30327730640639    5.47909726242173
C         1.31870813480051   -1.26092303466559    5.96681265371410
C         3.15696022683961   -2.34771637092248    4.67038711782413
C         4.45634245215753   -2.43413155588022    4.19291302836904
C         4.86958191359375   -3.57831351901469    3.31517279508711
C         5.34939019672277   -1.42666099112514    4.53021524582846
C         4.96779658893497   -0.35993516999653    5.32259365861277
C         5.93460979771847    0.72365244572999    5.69530215669098
C         3.07381215568892   -0.26587711158587    8.69860709628984
C         2.31843307370077    3.42819276938499    6.20425772212116
C         2.13868436419941    5.62204793733491    7.88588510344501
C         3.46038603588565    5.98363317304139    8.15641202599299
C         4.33646629317937    5.08628982639960    8.97698908734688
C         3.93500203731838    7.19172594659393    7.67485669191142
C         3.12532244499799    8.04758666700299    6.93943930447734
C         3.67234125531046    9.34246196473925    6.41998372934479
C         1.81449355544455    7.67282946469657    6.69761624708673
C         1.30153489441666    6.46839122330377    7.16230933715298
C        -0.13223085959022    6.12169575395843    6.89532716955610
H        -1.66654396840942   -0.25268814601477   11.03167822431593
H        -0.76620549070118   -0.67088012435649   12.49140501213726
H         0.05835758790987   -0.58850669927606   10.93336470378218
H        -3.19492773558377    1.36225277096769   11.44529053891640
H        -3.15119702297307    1.81915912056653   13.15016783849635
H        -3.39258422967840    3.04992612890442   11.90878009004477
H        -2.29275915008393    4.92627772349186   12.52122575169462
H        -1.39680529552648    4.70341234711377   14.02584119039402
H        -0.69376991698424    5.64090131873992   12.70513860560125
H         1.57998964866370    5.18078105544650   12.64547665903079
H         1.90669567376149    4.03374268182260   13.94486089305924
H         2.75613911987299    3.88732228196512   12.40519234040278
H         2.10497906454608    0.20795444502944   11.45024985562090
H         2.37403873419366    0.85507777738990   13.06680391153590
H         3.00095984905547    1.71542255994803   11.66365161840266
H         2.39900919342421    2.12902123107212    9.41065282757064
H         0.64528243817209   -1.64378486207155    5.20267336173028
H         1.20239016247826   -1.88338352444101    6.85545433559704
H         1.01846217193443   -0.24813845254692    6.22413216944504
H         2.44580160803673   -3.11990321890950    4.40917625143999
H         5.95174316298653   -3.62154387799486    3.21751308543162
H         4.51608864229242   -4.52407954673161    3.72295835703893
H         4.44077061489177   -3.46406105238712    2.31896255711834
H         6.36590778733226   -1.47071487913045    4.16343718411273
H         6.83684661046089    0.66377554932864    5.09185690694065
H         6.21327171802156    0.64100530003912    6.74680731419249
H         5.46801259119350    1.69754610301787    5.55605263287761
H         3.50211564472981   -1.13197085167820    8.19869130833112
H         2.08081030861159   -0.52095194829429    9.06549999873719
H         3.69932503174061    0.00271093206087    9.54772130347025
H         3.34147254648995    3.70989526657114    5.95740656399707
H         1.65091852861836    4.19343662975377    5.81948612475658
H         2.12741225023367    2.47475013360636    5.71724331746379
H         5.27094561828315    5.58523061824788    9.22012923629296
H         3.82977323632530    4.81321015553055    9.90177661808361
H         4.56099833743887    4.16553616324381    8.43895514457017
H         4.95658095953933    7.47761243325512    7.88193149732152
H         2.87875226388937    9.96899589064902    6.02137737462124
H         4.18457534270185    9.88604228038410    7.21183610995212
H         4.39396349584333    9.15314023039050    5.62524958826703
H         1.16697675190437    8.33027758557104    6.13499198508589
H        -0.44660669114635    6.51814564862704    5.93212662045563
H        -0.76791714532963    6.56467479826338    7.66262405746400
H        -0.29812201879042    5.04641284851787    6.90935701597155

