52
CSD_code = PEQMOQ | q = 1 | S = 0 | Stoichiometry = C18H24FeN4O4P(1+) | MND = 5
Fe        7.04237352200785    1.52033018583311   16.89946676618931
P         7.32234009357701    3.56706784273222   15.95341301922753
N         8.89897331512266    5.67642428453760   15.01750262002845
N         7.89907715275405    2.90278339998021   13.24355955285939
N         5.79592295084482    3.23955272361547   13.66420106812923
N         9.86652126433091    4.60876663072342   16.64216297814814
O         6.87168348349061    2.15565000350846   19.73854450288490
O         4.19809604801487    0.92307329006307   17.19603571834072
C         5.88117205796548    2.83649752320611   12.35218188149114
C         8.80563003075766    4.57698558423588   15.80675718576025
C         7.02808544534760    3.27487505921785   14.20361530534453
O         6.89418374891643   -0.04865359367732   14.45763056126211
C         7.20462899792071    2.63466549728411   12.08261185505405
C        10.65057569437647    5.70223028406208   16.35355369973125
C         7.89250282465849    6.13349774356270   14.10390500247924
H         8.01644338414624    5.70016797030655   13.10915366636525
H         7.94658655583313    7.21719271121465   14.02134377312641
H         6.91248901096840    5.85593014337328   14.49788554241508
C        10.04866272564748    6.36882595212417   15.32663950556062
C         4.67978120355071    2.67660340665391   11.49999989177854
H         3.98668632484973    1.96821908476897   11.95141717909512
H         4.96013219781033    2.30593443742132   10.51955891101425
H         4.15996322836443    3.62633833507258   11.37637898829065
C         9.30148645646280    2.67054264662312   13.44221217516457
H         9.89514761904139    3.55342001671938   13.19463420774212
H         9.62526881929217    1.84261249598447   12.81375699120061
H         9.46649426158494    2.40537630164971   14.48945614263455
C         4.58007831838082    3.52069898364881   14.37119057247116
H         3.92823692092952    4.14860703204469   13.76441830376688
H         4.82664934383188    4.03503416563855   15.30205647585542
H         4.05498182261397    2.59502534115970   14.61468774705488
C         7.88195412388826    2.20366395105911   10.83599783700115
H         8.72376502178339    2.85423812718374   10.60509171559668
H         7.18451429055074    2.23203226573274   10.00492508066806
H         8.25330532190362    1.18305976049858   10.93142222925999
C        10.17263453958664    3.67773117166609   17.69127999077230
H         9.42293108593310    2.88688567812465   17.69976233733019
H        10.16357990806462    4.18354329274586   18.65783357183754
H        11.16043128154696    3.24234202314580   17.53300624286936
C        10.45403026317929    7.60364017939702   14.61156409974661
H        10.40683704470063    7.46237467141167   13.53318070897208
H        11.47156762631783    7.86950252637648   14.87969456326868
H         9.80618715574327    8.43913657759570   14.87763373531021
C        11.89390519241548    5.99585950264279   17.10377133518275
H        11.67793484719007    6.13848341421811   18.16171902833163
H        12.35833162836692    6.89990369515832   16.72389641657031
H        12.60509024566947    5.17548762748474   17.01414040449993
C         6.95600070800574    1.95907363986778   18.61531443828780
C         6.96271986695355    0.58171635555904   15.41663712000229
C         5.30107623616466    1.20667823391827   17.07043140574364
O         9.39378523888050   -0.10678458019302   17.49972271591810
C         8.50186354954259    0.57445640233171   17.26584323283013

