54
CSD_code = PEQNEH | q = 1 | S = 0 | Stoichiometry = C19H24N4O5PW(1+) | MND = 6
W         6.35747265701159    6.19568727449827   16.00275059600549
P         6.51318891200918    8.16124760180992   17.66218655251833
N         9.19875885894418    7.63063166705049   18.48315316635134
N         5.19021171436670    7.36511604741257   20.02863111707582
N         9.00409933355795    9.06972717247685   16.86961269473510
O         3.21682343120077    6.29971880233482   15.88937460088358
O         9.48613285265111    6.05829216425830   15.82881258688683
O         6.29295857988176    8.28593402753257   13.65968012607304
N         6.68788750464556    8.90274849338508   20.36088165671365
C         4.35119590721022    6.27070579812367   15.98732952526879
O         6.53898897277032    3.97037534009797   18.20802247146442
O         6.21863315907463    3.94190962238252   13.84239284530623
C         8.34401192614648    6.11282882689161   15.90429158348689
C         8.30487308490513    8.30364131843582   17.72825382808338
C         6.17592988270036    8.06387886449791   19.42556297925102
C        10.47538968897516    7.97477500619802   18.08811329521570
C        10.35125879055618    8.87156081236783   17.06714347455205
C         6.30888354811295    7.55500486317766   14.53357722503820
C         6.44138688995327    4.79045500424332   17.41574395561878
C         6.26375523079800    4.75892468833600   14.63146188400783
C         5.11018216473736    7.72672290857490   21.35405821181858
C         4.30784439052178    6.41223908237122   19.41747304561113
H         3.28577983298926    6.79482497935495   19.41098191825568
H         4.32712258500231    5.47237245613080   19.97090805230458
H         4.62394197621026    6.23492079289507   18.38903211718359
C         6.05603632956356    8.68580113999693   21.56674775154474
C         8.89007942881193    6.60010997276078   19.43367263033496
H         8.87583706836330    6.98524284348317   20.45574932015469
H         9.63753821763948    5.81079239402935   19.36812879607819
H         7.91295947503226    6.17797178675790   19.19403726617427
C         4.12279320550222    7.11665816465876   22.27456794084845
H         3.10953995670198    7.27373980302160   21.90765334527036
H         4.20353850448534    7.56056797672563   23.26131462631620
H         4.28562772775208    6.04297221003926   22.36250603493339
C        11.37456916769603    9.55247803341267   16.24065234345800
H        11.22695813890863    9.31768071198461   15.18752896117179
H        12.36843294039566    9.22633184295163   16.52873821012110
H        11.31589441114364   10.63419914002501   16.35804193984540
C         8.43619169063195    9.91895483205674   15.86224431191084
H         8.55423047460027    9.47268014402498   14.87308853141451
H         8.92898620282616   10.89113461383237   15.87018644546758
H         7.37136915062240   10.04661874865702   16.06576984179968
C        11.68266618508420    7.39423405090707   18.72263808302644
H        11.61908168246439    7.44994773488982   19.80799036566262
H        12.56779697968737    7.93239461469716   18.39902455207331
H        11.80044818541606    6.34816214149856   18.43904391496482
C         6.41856677335347    9.42400201996062   22.80113311823112
H         7.49581304871653    9.41566202878664   22.95762313212760
H         5.94241622028425    8.96326827853669   23.66071393638621
H         6.08726892873061   10.46132563447239   22.74799933811445
C         7.61942135710285    9.96637191238794   20.11560314637821
H         8.65478050472203    9.64293043801971   20.24130900870289
H         7.42389859967599   10.78084354107574   20.81069543938904
H         7.47814756916631   10.33137963149615   19.09676815836805

