69
CSD_code = PEQQAF | q = 0 | S = 0 | Stoichiometry = C32H32ClNOPRh | MND = 8
Rh        4.92994939000377    4.43002596278978    1.47907573509797
Cl        4.84132616208486    4.10809219509833    3.79719571405020
P         3.59927538363927    2.60459228015466    1.19155350417484
O         2.99110321141855    2.16085790344571    2.59891003655299
H         3.43938367976251    2.62626840984502    3.33919184473422
N         3.02041909602676    5.22741594813325    1.55218760385661
C         3.85072743548469    1.07736022220581    0.30420863574859
C         3.10391293664888    0.82299994559874   -0.81987410315614
H         3.29685155526852   -0.11191601119620   -1.33185538285924
C         2.06110935714333    1.59567411949032   -1.36430911224829
C         1.66428017382890    2.80330668559710   -0.81257024562843
H         0.88382574247311    3.36087354997342   -1.31627266491029
C         2.26702261397876    3.37910241563673    0.29301662463974
C         2.00929009813860    4.67118953752586    0.83096186175864
C         0.79691570556042    5.37312217856171    0.69275037094127
H         0.00299306646530    4.92441505192958    0.11765588223329
C         0.62761891776807    6.58713943084895    1.30774583180514
H        -0.30075746822353    7.12915838476988    1.20728978692745
C         1.66388398498022    7.10576625599102    2.08778965678176
H         1.55897457550322    8.04395204880781    2.60679115050014
C         2.83554291855056    6.38687135067601    2.17832690897994
H         3.66384461911699    6.74832173311033    2.77864856148845
C         4.88340468991985    0.18915195267691    0.81429799055481
C         5.74968557593763    0.65183735921427    1.80901921202518
H         5.64256947575368    1.67068537552435    2.16922493098270
C         6.74018186441408   -0.15196382906215    2.33484433602921
H         7.39148019822704    0.23367670879140    3.10605111742756
C         6.89620061942739   -1.45115921260339    1.87919761532877
H         7.67003124582845   -2.08428949319462    2.28711816801633
C         6.04152796643568   -1.93208946349413    0.90060375378142
H         6.14780958446882   -2.94741773783398    0.54575772362942
C         5.04729619471853   -1.12953865473199    0.37696348313862
H         4.38394003465062   -1.54210429817596   -0.36777057761485
C         1.37514085977151    1.09485918280589   -2.56350286255507
C        -0.00904627695290    1.20956746616417   -2.69281025427063
H        -0.58166159847149    1.65133684483115   -1.88989533717807
C        -0.65818370852435    0.73717955149389   -3.81712554143195
H        -1.73235596086209    0.82857976331593   -3.89484223211958
C         0.06044298330092    0.13955056380193   -4.83926554749512
H        -0.44756960131237   -0.23156280047187   -5.71723593129974
C         1.43531982519827    0.02029296878829   -4.72588306593293
H         2.00458180409252   -0.44028098991452   -5.52097422720269
C         2.08572299949909    0.49261606908963   -3.60179179624805
H         3.16181945281730    0.41201732956823   -3.53591733791384
C         5.96224225649184    6.20060024186963    0.43600758460989
C         5.62315011188405    5.11594719707030   -0.46416422867808
C         6.41687432883553    3.97766520575623   -0.11039236252691
C         7.07509944736839    4.28733374826128    1.11577865825855
C         6.83536923911016    5.69226965601193    1.41070619610201
C         5.52441673418054    7.62015402461935    0.25733010905168
H         5.64836368184792    8.19263905839150    1.17364670819079
H         4.47993729256399    7.67744903901300   -0.04585719139110
H         6.12710948247473    8.08881885129226   -0.52299576669095
C         4.84880908643441    5.25691231813619   -1.73644040938313
H         5.52376941444934    5.52744745135303   -2.55070427355821
H         4.08894167520766    6.03100034704165   -1.65213250534218
H         4.35830164243683    4.32036171092147   -1.99560154421397
C         6.57293325703417    2.75142914028346   -0.94819694036984
H         7.21131174514856    2.98357436121231   -1.80241540288373
H         5.61126943662961    2.40802285713134   -1.32800673864677
H         7.02609673793976    1.93907720545111   -0.38620670015063
C         8.12385122104208    3.47114034755882    1.80710627639725
H         8.07918555874409    2.42989225420380    1.49875036436128
H         8.00066341630411    3.51804141904159    2.88788546020658
H         9.11177506579358    3.86562615126974    1.56166214246108
C         7.53571530657803    6.43875019121622    2.50030551893269
H         8.59812649835871    6.51733809090774    2.26333793547694
H         7.44277740190031    5.91402461537091    3.45020693331793
H         7.13257857738672    7.44155026114485    2.61860835536261

