85
CSD_code = PEQQAD | q = 0 | S = 0 | Stoichiometry = C41H37CoNO2P3 | MND = 4
Co        2.94618620866515    0.20422744358387    4.51137919317115
P         4.01870244029232    0.05896244586715    2.55226768368482
P         2.25314014738087   -4.60879627900116    1.06416367806015
P         3.35045967446325   -1.96508751703896    4.80035912087449
O         4.06848110617310    1.27040387405383    6.78740490565405
O         0.25380743403549   -0.06634340405240    3.36752578859528
C         1.30380499265941    0.06604307237967    3.82165427121774
C         6.09198458381719    1.82123861147706    3.11818648738426
H         5.59830310796637    1.91928913562653    4.07687305290202
C         7.25639969918085    2.51929076956479    2.84971454921676
H         7.68664267367856    3.16240375963527    3.60338803840534
C         7.86396386423057    2.39610564108838    1.61183670225628
H         8.77058485841218    2.94277692170483    1.39770720682298
C         7.30614614050011    1.57672229729156    0.64203308628888
H         7.77886315108624    1.48673438516546   -0.32540736208886
C         6.14459370458738    0.87717061530257    0.90755724536179
H         5.70117710590184    0.24738483442403    0.14828468020360
C         5.53325220501720    0.99547578418681    2.15225703723502
C         2.83890946530231    1.58579570268543    0.61851368909699
H         3.22420661956607    2.39107051131220    1.23202644050989
C         2.09640554400098    1.85724210745638   -0.51319998036021
H         1.90080384053257    2.88056332785423   -0.79848100560796
C         1.59505546871051    0.81471520883038   -1.27742873672203
H         1.00959825927444    1.02375588349331   -2.16054694929597
C         1.83560845757896   -0.49498773262393   -0.89982427201558
H         1.43292328427459   -1.30981011971903   -1.48480830352474
C         2.58320073004763   -0.77061987078100    0.23190392381146
H         2.74698941375932   -1.80217900473197    0.51382556174355
C         3.10416264459123    0.26926775356008    0.99175065773128
C         0.05066432838495   -6.09357326185688    1.67181492391242
H        -0.39316447868564   -5.42567260930409    0.94442119834398
C        -0.72068228199655   -7.05126539834092    2.30038526945689
H        -1.77139981645534   -7.13943832875247    2.06479091286102
C        -0.14525631639969   -7.89065337102191    3.24119400543213
H        -0.74515186285894   -8.63577415277188    3.74254679534649
C         1.20047727533834   -7.76778119156880    3.53979368070006
H         1.65174077409520   -8.41889349720973    4.27483933511743
C         1.97792473764417   -6.81588577695924    2.90268794813476
H         3.02677680460497   -6.74803135531325    3.14945561036988
C         1.41055222714504   -5.97300324055947    1.95528128809945
C         3.00075820091594   -4.60940868184591   -1.58860692440167
H         3.10834539345583   -3.54603336956137   -1.41734374094620
C         3.27602133391440   -5.14158103109339   -2.83380152816558
H         3.60405392193104   -4.49685623428801   -3.63637779128216
C         3.12229233619586   -6.50085207663700   -3.05231379185920
H         3.33149661155999   -6.91941821061850   -4.02570372977263
C         2.69443494327194   -7.32124036217774   -2.02211271077307
H         2.57092111836718   -8.38122786281867   -2.19152964735460
C         2.42291718945822   -6.79203803534658   -0.77290350523675
H         2.08596912851618   -7.43905018129353    0.02468357733581
C         2.58040945054549   -5.43060899326790   -0.54619204088568
C         5.91239199157515   -1.63353070145588    5.74318340768387
H         5.80192856533722   -0.64719914367624    5.30920778682780
C         7.09821149518266   -1.99601470403728    6.35474758149840
H         7.92190074406154   -1.29820826153397    6.39108093263081
C         7.22175146058564   -3.24993937829084    6.92935901940768
H         8.14301715157696   -3.53419376782756    7.41614693699207
C         6.15846087108243   -4.13775872885179    6.88727909697606
H         6.25297553851502   -5.11436272134485    7.33990369119423
C         4.97329680389932   -3.78139784733744    6.27032178066967
H         4.14706985556683   -4.47784817570340    6.24824227084988
C         4.84258868778514   -2.52206127470317    5.69205772558539
C         1.90902234159261   -3.13215275865843    6.81891518297532
H         2.59053469116452   -2.57161838685312    7.44652002732336
C         0.90224136871570   -3.89275486056709    7.38006636626746
H         0.79558793815600   -3.93820098215036    8.45402793270422
C         0.02605818142672   -4.59227333550862    6.56411945974993
H        -0.75957293821751   -5.19047585044098    7.00139838370331
C         0.14828883862260   -4.50897512938389    5.18766468376885
H        -0.54150971006003   -5.03854698638418    4.54697641366259
C         1.15264795599379   -3.74425962046141    4.62171080878347
H         1.21698211990742   -3.67520772033868    3.54477365808421
C         2.06102514182526   -3.07416309441943    5.43348287408778
C         4.69218580208189   -1.66317488973483    2.43138143075616
H         5.64906814961626   -1.67319726828755    2.96760452506508
H         4.88308883332746   -1.92091720908225    1.38562338945969
C         3.71507567765573   -2.62759263823477    3.09586376845128
H         2.74820361390661   -2.55201035497888    2.57742870702265
C         4.17913004634283   -4.08107339677518    3.07334411197498
H         3.59203649711010   -4.64672166700657    3.80161102925998
H         5.22961966880072   -4.13786894532163    3.37535115978634
C         4.01078330843781   -4.71323539338663    1.69220860189663
H         4.62319678274534   -4.18345629812573    0.95511372817200
H         4.34082176289145   -5.75663176819510    1.69348186319788
N         3.55673291801214    1.00649432331964    5.75237613847490

