25
CSD_code = PEQREI | q = 0 | S = 0 | Stoichiometry = C11H7NbO6 | MND = 9
Nb        3.67342109758749    1.14416747162062    1.27781866986037
O         2.76307180275593    0.14500446126416    4.14355584944013
O         4.04210630563417    3.06021360111233    3.77321791306400
O         6.70986636202757    1.79207042836666    1.91517671608787
O         5.35532883297877   -1.33010173912288    2.32395177445910
O        -0.49060586561060    1.79455499675720    1.25322225537632
O         1.12507672341023    3.20938966433334    1.95666217985176
C         1.68601991304565    1.75457708725989    0.25583135592569
C         2.70964911946191    2.56193249698697   -0.30885134226073
C         3.53427102695578    1.72164270275466   -1.08093877564447
C         3.03991430703252    0.40128153652948   -0.97959345197065
C         1.89434106232458    0.41782505434937   -0.16391224022319
C         0.63402949581317    2.21771560411266    1.16671807050379
C         0.21459564116442    3.76083792290231    2.89743816769212
C         3.07774478834509    0.49227815474926    3.08906905789553
C         3.90419564219827    2.38365553306475    2.85018159686327
C         5.61605804223493    1.56628403451429    1.63187954673421
C         4.73843308093512   -0.45805341623186    1.89306283002404
H         2.72877017027484    3.64563473308265   -0.30182411375666
H         4.31595023775065    2.04999830516940   -1.75642787947887
H         3.39938633910913   -0.44994938860007   -1.54529127985786
H         1.20999041984885   -0.40437780776169    0.01031543006908
H         0.78586036390207    4.46757403920568    3.49344282828333
H        -0.60523149223659    4.26563427011714    2.38188061756166
H        -0.19694341693800    2.97071025346767    3.52921422350352

