70
CSD_code = PEQSEK | q = 1 | S = 0 | Stoichiometry = C21H44N3SZn(1+) | MND = 4
Zn        3.18163392680752    0.29098639532537    0.80797411635990
S         1.48722461276520    1.79982698429933    0.45808878597592
N         2.57664590603094   -1.31510950357859    2.13985085507893
N         3.96926106278853   -1.34709063790083   -0.43859707097164
N         5.11545158717133    0.06840412303795    1.87402532504608
C         2.37193170153992   -2.41005814730039    1.18477712292871
C         3.53290637394459   -2.59719176784904    0.19737217781741
C         5.41843394611737   -1.14760847601405   -0.31515201969308
C         5.90779394123923   -0.91275792672881    1.12242829650041
C         4.69223766745608   -0.46503391178922    3.17529832031634
C         3.66870864346856   -1.60582038434995    3.07439269566494
C         1.29518974818915   -0.95766027092754    2.80882477259699
C         1.47072987799716    0.24367039155088    3.73040317036924
C         0.64625908934074   -2.11584367324180    3.56750449132714
C         3.54534940011901   -1.23036557023779   -1.86025562199779
C         2.02553318034150   -1.24397779584238   -1.97973736641381
C         4.16310474636644   -2.27472817458223   -2.79211197044084
C         5.78653562128595    1.38359723892237    2.04214654796286
C         7.07062822085350    1.33869362913325    2.87252095835193
C         6.05481984682482    2.03534169603591    0.69065132147822
C         2.19626525037040    3.19863173450427   -0.50124907679871
C         2.73905148737162    2.73412924830107   -1.84247644480159
C         3.26599512427527    3.92530494567655   -2.64004224006085
C         2.16052574523142    4.95652557883160   -2.84472899611523
C         1.60444132557699    5.41264076501839   -1.49975799949338
C         1.08312330972883    4.22014153500629   -0.70167423066377
H         2.22762127454671   -3.36562724002970    1.70299414631613
H         1.46261511697618   -2.18096179901550    0.62664838752030
H         3.19814502120650   -3.31587705609753   -0.55299736180201
H         4.38175233443711   -3.05449364243356    0.70715952929511
H         5.97004509001067   -2.01193993278149   -0.70434749644039
H         5.67610131461474   -0.27972052168347   -0.92496585097117
H         6.95087421122704   -0.59672639205998    1.05209499292929
H         5.90726107316047   -1.85854887818610    1.66509020114935
H         5.55087793619288   -0.84103557336791    3.74413204743247
H         4.24767682355295    0.35975651163462    3.73350334381302
H         3.28517823549503   -1.78364942508860    4.08127275539584
H         4.17020460935138   -2.52426392491009    2.76709128555076
H         0.62108319811211   -0.65087217081940    2.00055718242508
H         2.02714001104307   -0.00751410696721    4.62951735996353
H         1.96418881135194    1.06194693851138    3.20763200411397
H         0.48959324236912    0.59680177002834    4.03415749599064
H        -0.24809437557347   -1.74905250955207    4.06239354527324
H         0.34660904834268   -2.91936697607716    2.90102863142834
H         1.30382488508867   -2.52295010210119    4.33174679787425
H         3.89532250050540   -0.24491074908436   -2.18937432576609
H         1.57368296494251   -0.52875490438810   -1.29222424231727
H         1.74718736918857   -0.95826058804237   -2.99041847793920
H         1.61424685094379   -2.23180538814768   -1.79139175908377
H         3.88832291187141   -3.28898447044076   -2.51503619195377
H         3.79626338208750   -2.09921441282542   -3.79934748243922
H         5.24669658307982   -2.20226674903150   -2.81925019661502
H         5.06278660893731    2.01162314813430    2.57599398875469
H         6.88583372403690    0.97428897798546    3.87885075497258
H         7.83692005847645    0.72027912801826    2.41239068517975
H         7.46729350381146    2.34663268564650    2.95465558264588
H         6.35989757983064    3.06688845921906    0.84477866190807
H         6.85115341270930    1.53180797381592    0.14896685679199
H         5.15089277202524    2.03993313092691    0.07947185552464
H         2.99358739641186    3.63422575446189    0.10824849265161
H         3.54035663177592    1.99881492532480   -1.68896714415578
H         1.93608453278874    2.24503380207505   -2.39827610963632
H         4.09754167259921    4.38512834474377   -2.09998963588082
H         3.64195486061950    3.58098919807086   -3.60507711733231
H         2.55282049854665    5.81273853889125   -3.39473666657123
H         1.35801487855475    4.51500772878232   -3.43897119062167
H         2.39005306842153    5.91577076890259   -0.93124187662044
H         0.79373205669813    6.12535155030895   -1.65294108126236
H         0.25888682110680    3.74470038129652   -1.23740350900677
H         0.70608815529767    4.54712977109514    0.26860521119246

