31
CSD_code = PEQTUA | q = 0 | S = 0 | Stoichiometry = C6H18Cl3OP2Re | MND = 6
Re        0.29025198816956    3.24748995237578    6.20037980136862
Cl       -0.59246644071076    5.31171808459841    6.86435581047667
Cl       -1.54545887763084    2.22259556923784    6.94799991026922
Cl       -0.68095557883540    3.44189133562768    4.07906916706917
P         0.94182222653666    3.32150625327091    8.57216832405972
P         0.83254728603021    1.06208235640740    5.20812148504285
O         1.81894780636438    3.77002032535525    5.80004636717443
C         1.80279141057230    1.87426209534395    9.28403351843192
C         2.09210701598449    4.69738574608592    8.87598949140434
C        -0.41909173479468    3.60567398961086    9.74152975679521
C         1.70137351469438   -0.17024200944979    6.24198230625212
C        -0.58711229120419    0.12965203165821    4.56367450719083
C         1.92818176035655    1.26535317922718    3.77054084332899
H         2.71554033826846    1.68779405098021    8.72377962806404
H         1.15335949950025    1.00454922411656    9.21933358095290
H         2.04587990093922    2.06982601604918   10.32723354308341
H         1.58777684197784    5.62552168656153    8.61135294838705
H         2.96128392958934    4.57594808481558    8.23130897718429
H         2.39376364527872    4.71344376834653    9.92271108976513
H        -1.09244573789132    2.75063194399142    9.72830013918102
H        -0.96423388731583    4.49538513352680    9.43019633751136
H        -0.00818474754643    3.74418918225968   10.74107032518609
H         1.08053285249267   -0.41852120494168    7.09948340900793
H         2.64336865219335    0.24959994360481    6.58569367745851
H         1.89148057052059   -1.06938003490745    5.65801461502704
H        -1.23284681878942   -0.16344097057605    5.38937665348345
H        -0.22559606479789   -0.75372688348016    4.03825036870352
H        -1.14466288309352    0.77207026115185    3.88386799078609
H         1.41218373038459    1.88137608455420    3.03560781859078
H         2.17698891498586    0.29377661641119    3.34499785882079
H         2.83127317777464    1.78386818818642    4.08892974994084

