73
CSD_code = PEQVUF | q = 0 | S = 0 | Stoichiometry = C32H34Cl2N2O2Pd | MND = 4
Pd        7.87678138762517    3.38533245528071    4.66334183396696
Cl        6.15438520815789    2.02126166622318    5.31720067685483
Cl        9.59172187095211    4.78185112864207    4.03603013533974
O         6.03122244156429    2.53697939655139    1.12398860893612
O         9.53062168517009    3.92321975764181    8.37174648812051
N         7.41803149667196    2.89496164513819    2.81858119834729
N         8.28952162257048    3.74309066011223    6.54344136231919
C         6.32355781860822    3.22012378152937    2.23963132594783
C         7.06836089033716    1.57721236593085    0.92427747396115
H         7.53717545734043    1.77893028140066   -0.04176154557487
H         6.61843745565183    0.58162810087333    0.90472870981940
C         8.02796437439972    1.77742088476002    2.11910369830226
H         7.99636520554604    0.90581065067727    2.79305731376047
C         9.50220303887506    2.05610218857862    1.77217884140760
H        10.00082671770527    2.27655832542594    2.72714585293937
C         9.67392856809932    3.27613430807964    0.87198593102750
H        10.73265117927498    3.45249229885709    0.70152404024702
H         9.26504766390939    4.15858106297090    1.35845515881724
H         9.19148234388168    3.14369162844664   -0.09441192016214
C        10.13864445977151    0.81414844969494    1.15533257247369
H         9.69001496975061    0.58695831588572    0.19024400574149
H        10.01142607110726   -0.05092581201855    1.80245136025612
H        11.20261182220442    0.97862122251559    1.00687159583796
C         5.43643028771294    4.27228798646387    2.73690673778825
C         6.01944779719452    5.41662243087270    3.25279535684365
H         7.09897088930498    5.55069428132352    3.21455446449759
C         5.22312507936845    6.45610699474216    3.75166818901593
H         5.70084507240573    7.35053622758530    4.12178912505878
C         3.86080072090312    6.34009598040559    3.76093554818880
H         3.24282180084445    7.13717911509658    4.14917665688249
C         3.23186812401186    5.18005143587884    3.26554700595430
C         1.82734378846775    5.04796956600538    3.28836702303903
H         1.24031663677483    5.86115150299928    3.69090962594597
C         1.22167623799456    3.91664592315301    2.82114797880912
H         0.14615050130303    3.82082911404687    2.84469628758217
C         1.99946426500956    2.86538725405622    2.31503864096614
H         1.51188718593901    1.96968329256819    1.95941695602856
C         3.36283538087569    2.96293386977545    2.27441288988121
H         3.94486030877633    2.14300979967707    1.88804286275918
C         4.02059993458637    4.12143229311505    2.73611831643323
C         9.42084060158656    3.51961737895668    7.09705688210206
C         8.28700184935340    4.52760963358532    8.73635726024377
H         8.47610969153487    5.57451664444961    8.98866401345600
H         7.90068742433116    4.01003393478080    9.61668569224654
C         7.38428600554370    4.35573624098837    7.49526705381634
H         6.57615856883951    3.63592202582001    7.69121019856988
C         6.74476959773774    5.62298918393349    6.89967063405150
H         6.26991302220155    5.28928357771924    5.95805005099017
C         7.77394566837994    6.69975179325367    6.56128604151569
H         8.28028078897480    7.06612216455858    7.45232434578666
H         7.27789576505552    7.54558874825321    6.09238401039698
H         8.51845914142276    6.31435360131845    5.86523618863317
C         5.66295828604302    6.15905658681267    7.83207827950652
H         6.09278217189256    6.47874354453627    8.77960043172332
H         4.91494974732648    5.39551160090200    8.03157045334880
H         5.16721512386094    7.01183197855475    7.37542946273105
C        10.51023464534016    2.82424247744485    6.41104000320396
C        10.17435370443921    1.72655377080498    5.63503616282363
H         9.14972448348599    1.34084152822935    5.63473219061778
C        11.16069907358764    1.04203393922749    4.91294511813973
H        10.88210043706073    0.17877139484218    4.32678089677944
C        12.46218719443741    1.46157276888471    4.95231459272772
H        13.22269794361321    0.94348193651425    4.38585942600850
C        12.83984332390361    2.57495612564769    5.72901452444041
C        14.17893151255538    3.01756610656836    5.77131733596716
H        14.91861899430517    2.47740727834196    5.19783645339040
C        14.53314639864363    4.10810819766327    6.51312480098931
H        15.55952002974653    4.44342976073101    6.53808826748123
C        13.55983584251242    4.80649735550671    7.24286504361744
H        13.85029619431238    5.67361777655726    7.81751822890481
C        12.25382511784502    4.40257029702259    7.22662449657850
H        11.51479463044176    4.94896900074895    7.78945403553097
C        11.85630925902269    3.27420981586200    6.48070903929194

