50
CSD_code = PEQWEQ | q = 0 | S = 0 | Stoichiometry = C21H11ClN5O7ReS4 | MND = 6
C         0.66247448003578   -1.53104234949984   -1.53138986321802
C         1.20548429453662   -0.43470393168640   -0.96818018732136
C        -0.66734835711349   -3.18232318442865   -2.99381695570638
H        -1.32764152946065   -3.53931588574872   -3.76185065412018
C        -0.00856435903967   -3.94618086503499   -2.12652135265739
H        -0.05198904185187   -5.01823187179682   -2.08203967861778
C         1.87203287792308    1.97231488571700   -0.36512086446395
H         1.91875393030903    3.04417822701235   -0.43153769219517
C         2.55328496685968    1.22635662418245    0.52978213483878
C         3.44004031722705    1.71881305320709    1.55443998614578
C         3.50261591186410    3.07926107224423    1.88133940182497
H         2.85134590518913    3.78686883632531    1.38779447809538
C         4.27188429297323    0.84675370575969    2.27601184221315
H         4.24458722335611   -0.21306840145955    2.07373847850263
C         5.12396442148863    1.35929278127983    3.22212535820739
H         5.78613587892633    0.71696212282148    3.78105545734480
C         5.14987401103940    2.74130238127449    3.44965163268599
C         6.07046941606702    3.34346463475331    4.36209378934141
H         6.67466559903864    2.70367575872394    5.00169464999857
C         7.72980036723609    6.29795126715462    5.22497631329300
C         8.32076843999910    6.88469832190737    6.37509148690186
C         8.98892480962568    8.10012302395351    6.27342533977052
H         9.42445385302564    8.54595053694566    7.15713667638145
C         9.10520391510886    8.72496171178322    5.04805108779750
C         8.57883597210315    8.13377703306032    3.89556443374348
H         8.71910367847056    8.62194196594613    2.94341081050609
C         7.90755376430137    6.94150419240543    3.98548927064170
H         7.53885516199141    6.46598439310066    3.08687830997875
C         3.29288172752891    6.31283460543629    1.93515364131408
C         5.13111651228708    7.52892326301362    3.53314400004889
C         3.42245926872631    5.68310961315335    4.69735755400599
N         4.31954147568102    3.57752490142477    2.78792751320500
N         6.19911671602225    4.63276531870251    4.39849689272210
N         7.05618593514571    5.12190518192065    5.31477319526068
H         7.22787484912378    4.58143703101048    6.17256469638794
N         8.28032379545792    6.27361944586815    7.66596942971169
N         9.81054057425241    9.97995285883415    4.95370926530502
O         7.89387133170775    5.11008944255876    7.74551278434881
O         8.64182623966494    6.92064617620407    8.61937974031806
O        10.25660367285274   10.44788740662384    5.97777055684660
O         9.91226267916424   10.47963019169227    3.85565074373160
O         2.54161165693797    6.62284417411793    1.13033240003182
O         5.38517603440961    8.62911528147337    3.72699556495302
O         2.71373254684704    5.65919774046891    5.59897958174986
S        -0.45515432463959   -1.45649905764104   -2.89246554033580
S         1.01489311710390   -3.16000412273745   -0.95660803299950
S         0.86614063538804    1.20317169736992   -1.52664875032334
S         2.32222227105889   -0.52477143644587    0.39253978052737
Cl        6.16572858582948    5.36541786419745    1.40282430161307
Re        4.64147449821180    5.67313238285021    3.18014699166457

