33
CSD_code = PEQYIU | q = 0 | S = 0 | Stoichiometry = C12H11Cl4N3S2Zn | MND = 4
Zn       12.12172817132451   -2.45931034950350  -12.63932471683171
S        14.21885430943290   -4.52322218766918  -15.92784476460750
Cl       18.94284122235764   -0.45987567488518  -13.92977310817221
Cl       17.76205436238885   -1.20039962195849  -16.73764308565991
Cl       11.89580747624435   -0.86180059371317  -11.18852607242922
Cl       12.06589528045810   -4.69487817647851  -12.43972916234453
S         9.17299672057789   -3.49285016421113  -15.81700905590550
N        13.41230934696125   -2.45914717229316  -14.36906675520489
N        11.79614713876317   -3.82674897025071  -15.37300933136250
C        14.72655613397997   -2.00653050120375  -14.28479413835249
C        17.33323562767192   -1.04504177637701  -14.07054980665973
C        10.69051797066006   -3.13888780308859  -14.99169696925261
C        15.51574132946105   -1.85826203358305  -15.42522683082012
H        15.11933183057962   -2.07814680721735  -16.40402306607002
C        16.53824170745292   -1.17394442680890  -12.93892571343406
H        16.94105728922538   -0.90197398479328  -11.97645545388134
C        15.24503279517426   -1.64094880299111  -13.04389013128963
H        14.62928567542376   -1.73079084606899  -12.15916911734528
N        10.64823232512159   -2.22846916363681  -14.09989753058614
C        16.81064404230696   -1.38007484343058  -15.31703394050292
C        13.08627487348320   -3.44585993090314  -15.11537873988019
C        11.65329133688461   -5.04732206070139  -16.15561659156016
H        11.48518637224988   -4.78880578700178  -17.20885867408584
H        10.79852712125993   -5.61689936634615  -15.78576656482071
C        12.94068385854365   -5.82038192957408  -15.97130710295449
H        13.15023906250894   -6.50889134080125  -16.78437826167812
H        12.96314330419031   -6.33663002901644  -15.01103218728010
C         8.28854047133455   -2.41021446028473  -14.65310439369672
H         7.56515015539424   -1.81339010911680  -15.20235335354719
H         7.76955834173198   -3.05246966081023  -13.94130643876395
C         9.37762601787125   -1.56080897593555  -13.98399448708255
H         9.47175295754440   -0.58162659601784  -14.46746886314354
H         9.15931537143574   -1.39399585333237  -12.92774559080141

