47
CSD_code = PERBOF | q = 1 | S = 0 | Stoichiometry = C20H18ClN6SZn(1+) | MND = 5
Zn        9.80774372888090   -1.93302430817450    8.31751859165713
C         7.10420937749732   -2.06319636645670    9.97681658775010
C         8.69045598375104    0.81214571010267    8.65063621890131
C        10.05998285526512    1.01255732405995    8.17459378133770
C        12.62295801053631   -1.39662934602544    7.79857349017539
C        13.93672352649921   -1.56059761667572    7.35179452927367
H        14.49952462913803   -0.70847906046180    7.00496038951541
C        14.48260626636074   -2.82722856919170    7.36292417956717
H        15.49265603485250   -2.98777348214076    7.02013654400730
C        13.71245552621434   -3.89154391385008    7.82291687181088
H        14.10796683266842   -4.89286867398265    7.84916303227590
C        12.42040009486981   -3.64238372106970    8.23905048817878
H        11.78121003514428   -4.43648384637779    8.59731857143788
C         7.72898718420599    1.92355467442704    8.65351332282617
C        10.48599773359870    2.30010573263469    7.60506875894101
C         6.48581514344156    1.77050025679640    8.03559219707321
H         6.25579763602476    0.85247077649842    7.51194621691610
C         5.58421120780215    2.81937478816418    8.02294705686722
H         4.63341216528494    2.70071976242875    7.52668232302795
C         5.90433206661692    4.01893184289213    8.63812022427842
H         5.19873835787394    4.83471270339144    8.62744645046209
C         7.13397541563014    4.17336454103059    9.25928250830698
H         7.38492574424254    5.10761328677923    9.73662052563557
C         8.04742473021386    3.13624829467682    9.26384980850541
H         9.00202246521691    3.25405962139469    9.75335805424411
C         9.74373790361205    2.89852508229209    6.58776890643011
H         8.85913069827441    2.40768906717805    6.21279796805847
C        10.16083764114456    4.09728276505725    6.04093261482902
H         9.58483011748033    4.55160993489157    5.25005617440786
C        11.31186988227550    4.71448151179549    6.50477769792300
H        11.62994614577744    5.65360745678944    6.08000602234538
C        12.05473985250638    4.12502887365934    7.51458461743772
H        12.94948612005180    4.60445537730027    7.88066562095583
C        11.65139218257673    2.91919669088059    8.05920328728056
H        12.21448720576637    2.47754148856573    8.87023976464248
Cl        9.13996439410603   -1.86875999876620    6.26534051690025
H         6.48723246735922   -0.11859470485122    9.63774705647952
H        12.50902706150402    0.62704697355409    7.34598317126474
N         5.92772297532779   -2.39509885352954   10.51522489796519
N         7.25487291000586   -0.78648069073825    9.54503372339668
N        12.04943307389022   -0.14563480167484    7.82707653131852
N         8.42591378728602   -0.38994216512701    9.03481984425715
N        10.80361260715749   -0.03816375218375    8.25651195723372
N        11.88114737407061   -2.42383512649363    8.22558265200901
S         8.32238428178498   -3.21176848378942    9.89230715681430
H         5.79662247339648   -3.34327818979769   10.82845451024166
H         5.16247609281698   -1.74665886588318   10.60595458483770

