29
CSD_code = PERBUK | q = 0 | S = 0 | Stoichiometry = C6H16Cl4NOTa | MND = 6
Ta       11.21893374944446    9.22715819024904   -0.73834704002488
Cl        9.86361036517563   10.03667143916208    0.95513705592602
Cl       12.13364625079200   11.36890324686444   -0.89882546122562
Cl       13.21524804551445    8.34805440549485   -1.52210492426091
Cl       10.60178583284036    7.05175710413154   -0.15527901671643
O        12.72835151766195    9.05710081370069    1.41939086320286
C        13.12822763917162   10.20757371502130    2.16541378464315
H        12.35942697730356   10.96238462631512    1.97560617153810
H        13.13190244384795    9.97210236160024    3.23495933895163
C        14.48797602627388   10.72790307203204    1.71432682233851
H        15.27036671853150    9.99519937463370    1.89840442121584
H        14.72772917218035   11.63920124019564    2.25424583061129
H        14.45825409212264   10.94610592589554    0.64939909546593
C        13.20998967875869    7.81277310754354    1.92936498052396
H        13.24093275704593    7.13575790413866    1.07061135298702
H        14.22798410198370    7.93965337676512    2.31291268590467
C        12.28685990161764    7.24765709729808    3.00251923687307
H        12.24280537606982    7.90323991867692    3.86927680017073
H        12.64827610206324    6.27357643167145    3.31877539474564
H        11.28370728044224    7.13738880565530    2.59757871916587
N        10.09668580129138    9.34904941957092   -2.33571625362799
C        10.02136115127598    8.33408076383155   -3.36488276860784
H         9.00086380487727    7.94236589673495   -3.44295490708499
H        10.69499028577483    7.51288939626548   -3.11981698348135
H        10.30903277666123    8.74893671295644   -4.33692082240500
C         9.22902673457871   10.46550251477446   -2.64506715484073
H         9.53026616966887   10.93578492448445   -3.58792670907449
H         9.28784574883812   11.20683008386368   -1.84803101364783
H         8.19031349819396   10.13089813047710   -2.74034949926534

