133
CSD_code = PERCOF | q = 0 | S = 0 | Stoichiometry = C60H60N4O4P4Zr | MND = 8
Zr        1.89063656794809    5.74674734844737   15.04907539061508
P         0.25881088645709    7.55638570237829   16.45969776680421
P         1.60105901145115    3.63131851165170   13.21382608861689
P         3.39138288040718    7.66005441573092   13.55397072033766
P         2.36401614922463    3.74772831045891   16.94421135327371
O         1.77423994610818    7.45449122294551   16.55419409222115
O         2.88695383390870    4.00961762374910   13.93292164104587
O         1.92056766973649    7.33848086132655   13.35616840153052
O         1.04331565854775    4.03608307854492   16.24418132373267
N        -0.17442799307471    6.43409188184438   15.41119600505259
N         0.59295939495774    4.82249895294566   13.53568106403142
N         3.82930649684132    6.68317127986532   14.72406007895456
N         3.32499307184230    4.96528768974808   16.56512706483772
C        -1.09664915868306   11.82319996788527   15.43746469330330
H        -1.41344518970534   12.82206311064003   15.17449751858744
C        -1.04451820475461    6.37112510521300   14.26782540326013
H        -0.72579294814986    7.09180218751826   13.48868935909234
C        -0.82994674076643    4.94294594530401   13.70450082617955
H        -1.20050759846755    4.23957661028363   14.47369488571361
C        -1.63663606878250    4.76975691178915   12.41586087743619
H        -1.27296219310561    5.49029200676664   11.67980659595774
H        -1.47052479148760    3.76788618070386   12.00909532115308
C        -3.11957959828058    4.99915219077302   12.69863390742820
H        -3.69442216103107    4.89770567128524   11.77509358084721
H        -3.47454227217888    4.23800613095343   13.39793556596794
C        -3.35428088836009    6.38334885295042   13.30139297669232
H        -4.41609466312968    6.51213442736961   13.52480122913247
H        -3.07119975915561    7.14488222352205   12.57121596210063
C        -2.52938610103972    6.58327591248588   14.57133878275127
H        -2.67792336459467    7.59269457247551   14.96215382096557
H        -2.83637287489043    5.87214012907420   15.34229837113024
C        -0.28612244653915    9.26617449432556   16.12261746747733
C         0.57441778281569   10.10558468518982   15.43311513310882
H         1.55832010170777    9.73415178153119   15.18350704738270
C         0.17237501539265   11.38538263539976   15.09399969329374
H         0.84876774822810   12.03971927892611   14.56369352158163
C         5.71285177067078    6.40582006195910    9.76776049324238
H         6.24694345129967    6.07145267551106    8.89012006427983
C        -1.96233678825962   10.98237513689536   16.12027728960927
H        -2.95116158189276   11.32703805970234   16.38706981407759
C        -1.55987494678869    9.70378168041675   16.46149748921957
H        -2.22263212523440    9.04219656040215   17.00263855208651
C        -0.44678116110611    7.13017475523970   18.09876635997044
C        -0.48606707198522    8.03058304988292   19.15286278396977
H        -0.13210701590396    9.04158528187628   19.00168987886002
C        -0.97480539909723    7.63064636739122   20.38497204386302
H        -1.00959077215910    8.33231355154127   21.20646895446692
C        -1.41791991722091    6.33053104940359   20.56624950554668
H        -1.79791100745418    6.02073031794883   21.52905476255290
C        -1.36890658716042    5.42664721997948   19.51704841732111
H        -1.70422890117893    4.41034482302474   19.66561962946695
C        -0.88331757494752    5.82589520030606   18.28475724981656
H        -0.81968137893356    5.14306730410516   17.44584048912855
C         1.21053900616970    1.87081330195063   13.55349987473751
C         2.27138870093755    0.97395569244732   13.50446813006039
H         3.27084693313418    1.36297468699150   13.37069697518738
C         2.04531344703680   -0.38396454570808   13.62673212676608
H         2.87117738363446   -1.07830328950258   13.57138048118571
C         0.75496955458428   -0.85362651086142   13.81473281489902
H         0.57488904571072   -1.91500009660644   13.90607240135122
C        -0.30229211104312    0.03711233737520   13.88629524900113
H        -1.30702169650468   -0.33006798464299   14.04004705830426
C        -0.07784362555280    1.39675696691198   13.74503638721356
H        -0.90224744306688    2.09177775518121   13.78070033478330
C         1.93389963586637    3.65447578356732   11.40058458090092
C         2.20389188400987    2.55945670712355   10.59483236911679
H         2.20470965278975    1.56377928119221   11.01560565768281
C         2.47078652900069    2.74075448930016    9.24706225171369
H         2.68159694918194    1.88450294666883    8.62198149502284
C         2.46806297966704    4.01246462610259    8.69986006397614
H         2.68045576599922    4.14814993522085    7.64920759671253
C         2.18722906786255    5.10898126788511    9.49995677380506
H         2.18380252347291    6.10227386612531    9.07474025290867
C         1.91733929150691    4.92854832770954   10.84369252731224
H         1.68535537611299    5.76501456272761   11.49437453361856
C         4.89345496372513    6.51929034197233   15.66988359704217
H         4.75353337129873    7.21235659903129   16.52217786367401
C         4.71760659622489    5.07844277419351   16.21844104523051
H         4.97546513798708    4.38579523991498   15.39499847743205
C         5.69273897694029    4.87708817291096   17.38186976479571
H         5.46330257140323    5.60781612838660   18.16077307526909
H         5.55829391175762    3.88258525599523   17.81586166681846
C         7.12552165018748    5.05805932244076   16.88270297850266
H         7.34748265559374    4.28371710766289   16.14410757740230
H         7.82666291258658    4.93850665942593   17.71214360462388
C         7.32193808988820    6.43144265994252   16.24053343176569
H         7.19709824465885    7.20357159098569   17.00355118544092
H         8.33869919402136    6.51104231479143   15.84854602565433
C         6.31221861577198    6.67013551575046   15.11869510983230
H         6.45639201320517    5.94560324130797   14.31331331961765
H         6.44317183871694    7.66852421901562   14.69149812543042
C         4.32839235707231    7.27242356793913   12.01236721397484
C         4.61532750524701    5.92293707993170   11.84187848084884
H         4.28550309458165    5.22985391283094   12.60809687846795
C         5.30004450543909    5.48906717585866   10.72178511289547
H         5.50876275340084    4.43735120634168   10.58810892464494
C         5.44583865158584    7.75296309718218    9.94326473411611
H         5.77585962836086    8.46946158688523    9.20435101283601
C         4.75695601270046    8.18826480177635   11.06393612515537
H         4.55631797342124    9.24186462691369   11.19708456329105
C         3.59818362263066    9.47799721679763   13.74417820875490
C         2.91713501297268   10.31239204156252   12.86512627386299
H         2.26858687812639    9.86596251683525   12.12444587003129
C         3.05698721261284   11.68525798587000   12.95723440017970
H         2.53304625947238   12.33102835858808   12.26644560563363
C         3.87174255391087   12.23243848545697   13.93674444562298
H         3.98216664348757   13.30475800321474   14.01032810462373
C         4.53701747921217   11.40554037638660   14.82629040891762
H         5.16227959721326   11.83422378731750   15.59608896625478
C         4.40430274177288   10.03028847052329   14.72811515249697
H         4.91520589094814    9.37864957538248   15.42054654873122
C         2.06961801817884    3.86232244343057   18.75835076418539
C         2.06345037718915    5.16678377186945   19.24013548354450
H         2.24944144440560    5.97038009491049   18.53494935539166
C         1.83709992638316    5.41660747404561   20.58055193949187
H         1.83270167629413    6.43192159327085   20.94948769166038
C         1.61312036142138    4.36084819046307   21.45058167019815
H         1.43486941417826    4.55122234518680   22.49911364260667
C         1.62451813452837    3.06053339012172   20.97632390712671
H         1.45684607118720    2.23651203548832   21.65548540450747
C         1.85537570031302    2.80897223262860   19.63312198039628
H         1.87176041057847    1.79083667235590   19.27020507387286
C         2.79774987967585    1.98311091682483   16.68210085875790
C         1.75594689016571    1.07146944928069   16.81135808989654
H         0.75411480586066    1.45088564235962   16.95422463658701
C         2.00320805757713   -0.28695225965924   16.75470039864714
H         1.19207529379168   -0.99120208716335   16.87051493189089
C         3.29620381381480   -0.74419659823559   16.55419254002458
H         3.49392202386707   -1.80572081800828   16.51693378399626
C         4.33285901725874    0.15969741953503   16.39801876309997
H         5.33905585251211   -0.19760952857380   16.23088300832357
C         4.08719769941646    1.52130467893955   16.46985310443771
H         4.89671897068028    2.22580082870578   16.36100184618128

