54
CSD_code = PERCOE | q = 0 | S = 0 | Stoichiometry = C15H32O2P3RhS | MND = 6
Rh        1.25712298092715    4.69492922093135    7.53028182225706
S         3.39320507541561    3.75350883726950    6.83920731902242
P         0.43070691886702    2.66515586255653    8.24340695025733
P         1.70092293908843    6.48451426437827    6.17609782217485
P         2.31683309833653    5.38384749042793    9.45893912389399
O        -0.21032338495252    4.72153625700672    6.24950905429610
O        -0.65072255256231    5.19942682215161    7.45454982451537
C         3.12867087167391    2.59210427512761    5.56108715837446
C         1.94765666772991    2.54861859879644    4.82457960717282
C         1.78882514787944    1.61090508649768    3.82222707875940
C         2.80065918148496    0.70920585544089    3.53494735997564
C         3.98168087901785    0.75653832622692    4.26008895284041
C         4.14917050284994    1.68771500085549    5.26457366450209
C        -0.70411906089595    2.69601283684666    9.68416883128521
C         1.57519330350548    1.29816609996344    8.67185024239625
C        -0.64501000869731    1.83878873572956    7.01921190715820
C         0.43019470537398    7.79574406675082    6.17716718919124
C         1.79465691771322    6.03979672369784    4.40548282979118
C         3.25538426930648    7.45829840556150    6.31557149928763
C         1.78140844989970    7.06564291729893    9.96965472216578
C         4.13885330943490    5.56250421560422    9.47024841935851
C         2.09759553150561    4.52668225014374   11.06974543727519
H         1.15722370164112    3.25518542590832    5.04549878779753
H         0.86565574401377    1.58654975614396    3.25915805599714
H         2.67137920002571   -0.02330183652689    2.75155532720419
H         4.77801162170385    0.05871098939635    4.04169069532674
H         5.06567027382497    1.73033179880398    5.83406850479361
H        -1.23603129275231    1.74777531518451    9.75195175836185
H        -1.41422744997541    3.50747194003707    9.53391179558103
H        -0.15179994969369    2.86609331582256   10.60405045495764
H         1.01068885623534    0.42202049378476    8.98677028124494
H         2.24951679208160    1.60808464370608    9.46696299891914
H         2.17202280182085    1.05484360955386    7.79436778092748
H        -1.39692344362912    2.55014758842047    6.68256642946244
H        -1.12342595575613    0.97407784452371    7.47950230069181
H        -0.04957554484272    1.52207613931474    6.16475372973569
H         0.62682821679156    8.50108489907829    5.37030021836163
H         0.43383066698939    8.31341129162447    7.13486273598211
H        -0.54154697144008    7.32708732293301    6.03854455921359
H         2.61126977319292    5.33437776333412    4.25664579629194
H         1.97406281793264    6.93984390198757    3.81715187563913
H         0.85821748178902    5.57546956275453    4.10418998006279
H         4.09570036569466    6.77529734089290    6.20352116198499
H         3.32474953196611    7.95238040295134    7.28194198205654
H         3.29129730661965    8.20810051921096    5.52663909013350
H         2.24824295282776    7.34993906356137   10.91255740251858
H         2.04624988517669    7.78494573194375    9.19720488082456
H         0.69721046303776    7.06056250875973   10.07865154701688
H         4.45530612425041    6.15038693872645    8.61285814970795
H         4.57773649068991    4.57138099396091    9.37357189136336
H         4.47073769866452    6.03402145462884   10.39448864963084
H         2.71418139308940    5.00771663750163   11.82891425710784
H         2.39194838295171    3.48304332150318   10.97551499473233
H         1.05152632226619    4.58394117133709   11.36513511043025

