51
CSD_code = PERFEX | q = 1 | S = 0 | Stoichiometry = C18H24AuN6P2(1+) | MND = 1
Au       -0.00011661154799   -0.00003896281156    0.00000329790381
P         0.00000296659287    0.00001370511767    2.26639355167800
C         1.07392009467399    1.27641109028305    3.03818276005203
C         2.43942388116738    1.37141724393477    2.34069583387607
C         2.31642046291048    1.82049111810741    0.97951597614035
N         2.20488076267752    2.16776393076446   -0.10535909610935
H         1.21220174521840    1.04385141485562    4.10041903400957
H         0.55277665472838    2.23571989164254    2.95232289487622
H         2.94153122497258    0.39953227783333    2.31084111228378
H         3.08230719244890    2.07628938367386    2.87645954530126
P         0.00000522559332    0.00002943859647   -2.26639388845584
C        -1.64233027764955    0.29177681837525    3.03823583382766
C         0.56853164399660   -1.56826718085946    3.03802240627088
C        -1.07386561155831   -1.27644165864433   -3.03812015568989
C         1.64241993929900   -0.29181671747676   -3.03805112219672
C        -0.56841848602156    1.56822976089949   -3.03826404627915
C        -2.40728888623621    1.42690000645478    2.34078485995787
H        -1.51005162933957    0.52772758298897    4.10048936728597
H        -2.21257847419800   -0.63917315332333    2.95229782206965
C        -0.03212835869112   -2.79826740345664    2.34058084640710
H         0.29818431248477   -1.57177909402364    4.10030868854092
H         1.65987272262834   -1.59665467759318    2.95196252716200
C        -2.43941309148328   -1.37127624867557   -2.34069594559191
H        -1.21205795414902   -1.04401355732074   -4.10039779504759
H        -0.55278435533488   -2.23577094707827   -2.95209338227049
C         2.40738620821325   -1.42693280888314   -2.34058278476866
H         1.51025503011954   -0.52778189592594   -4.10031653997026
H         2.21264220799135    0.63914663995950   -2.95208686526826
C         0.03202894954644    2.79830070189119   -2.34077066845784
H        -0.29783754190979    1.57166430484183   -4.10049202827384
H        -1.65977792747697    1.59656188350332   -2.95243643846478
C        -2.73490608389992    1.09578836811993    0.97966145207675
H        -1.81656332712127    2.34761260400275    2.31083843157068
H        -3.33908768224671    1.63133434849343    2.87664255303359
C         0.41809971217117   -2.91632825778018    0.97934167789706
H        -1.12485627001372   -2.74704570357086    2.31082843385378
H         0.25681414198793   -3.70749691113347    2.87630886747042
C        -2.31656088592110   -1.82033385305623   -0.97949074251858
H        -2.94140690449346   -0.39933109820676   -2.31086878941125
H        -3.08235767320941   -2.07607069547440   -2.87649074022060
C         2.73461683148494   -1.09609148444530   -0.97930376917299
H         1.81675337056634   -2.34771088888477   -2.31087513466098
H         3.33931998117457   -1.63121472304937   -2.87626980201390
C        -0.41846418805903    2.91636421372558   -0.97961808716866
H         1.12475812899239    2.74719321782873   -2.31085823708194
H        -0.25693962082110    3.70746948586998   -2.87658451713886
N        -2.97995834194841    0.82572950794602   -0.10523713712062
N         0.77482980072262   -2.99350094357242   -0.10544879535674
N        -2.20508966325012   -2.16788694892879    0.10529457355525
N         2.97982254929969   -0.82556124900923    0.10541783247917
N        -0.77496589508155    2.99346812347460    0.10525632912974

