109
CSD_code = PERGID | q = 0 | S = 0 | Stoichiometry = C52H46N6P2RuS2 | MND = 6
Ru       12.77398532141743    8.48461716489234   11.22191573265978
S        12.62381801979408    8.39325671942025   13.70258600547885
S        12.43150427822811    7.50573473433635    8.96165804134309
P        14.91193099171367    9.33522511905013   11.20690889157946
P        11.54891661295983   10.34217957216864   10.67947837208430
N        13.55728777455757    6.71131675069371   12.05395747631087
N        14.24707989412178    5.60376564587609   11.72352149130792
N        13.48019235464866    5.92327045533749   14.26888556315754
H        14.04410082304158    5.13305970289693   13.99791236457717
H        13.43196820962325    6.18638393923965   15.23709392627932
N        11.00173508997754    7.29841706956810   11.05208429803587
N         9.91104024202565    6.84931240088503   11.70867127163634
N        10.24215459967337    6.01124947267087    9.23907820130801
H         9.56276452436066    5.57584816591210    9.84259868710882
H        10.47115345180978    5.59508005014668    8.35444693491323
C        13.26838069473621    6.86631523774626   13.32689462641959
C        14.76950875218619    5.55075779519926   10.55762979274405
H        14.62611447159161    6.36981921172360    9.84416989443730
C        15.59737158918231    4.44804870547618   10.13810497317395
C        16.22069832510496    4.49729199709882    8.88898779059492
H        16.05580385611415    5.35334857869287    8.24975504878832
C        17.04253844463123    3.46711046304927    8.47657838218295
H        17.52239552203329    3.51515971640514    7.50967992945506
C        17.25439027175544    2.37239226541332    9.29987959190198
H        17.89737196030302    1.56732243781763    8.97552707448406
C        16.63923863331854    2.31278742973369   10.54175653701126
H        16.80453523921055    1.45895167341009   11.18330354491063
C        15.81907112938953    3.34007650524840   10.96035716309035
H        15.33543813616764    3.30595248079109   11.92457406774689
C        11.12217729943652    6.85186617777738    9.82026353046786
C         9.59030488154903    7.34650287125349   12.84005148085124
H        10.19011713837833    8.12222659870069   13.32095030166000
C         8.38737306749228    6.93602827257423   13.52425095972626
C         8.08288753210514    7.49438178158020   14.76711623939894
H         8.76905678777404    8.20323309142649   15.20834180335519
C         6.91926506235542    7.14766527448335   15.42474906638666
H         6.69203098458313    7.58636613953489   16.38582435961364
C         6.04070876244626    6.24014231997488   14.85454255480017
H         5.12933729269372    5.97190566785002   15.36868422160706
C         6.33414286337725    5.67764063424976   13.62128314133935
H         5.64879685188461    4.97044237215606   13.17602153380392
C         7.49551993440231    6.02074554822131   12.96053515498172
H         7.73030689346942    5.59458106097035   11.99731862643436
C        15.98977503970961    8.35793965078960   12.31769834365472
C        15.81639343524177    8.44332587999813   13.69921173109646
H        15.11666272392552    9.16073951467581   14.10744730572418
C        16.50782259385401    7.59680035198780   14.54618508372139
H        16.36654210597642    7.67621435547551   15.61522614970226
C        17.36890202525989    6.64292127717495   14.02821056475798
H        17.90012514964363    5.97496135197805   14.69084806907338
C        17.54040330340493    6.54481796313336   12.65809962980645
H        18.20070402307213    5.79585917701447   12.24496522549804
C        16.85621675392980    7.39445669553728   11.80778705930017
H        16.99486130565407    7.30212910677877   10.73992530651512
C        15.99379226908180    9.34782998028612    9.72025855424348
C        15.62089002641761    8.75279858568015    8.52341645883974
H        14.65457674846688    8.27810255158392    8.43316023142574
C        16.47971215159226    8.76005963296931    7.43666312937674
H        16.17336755477107    8.29430020536766    6.51107788652636
C        17.72183949819309    9.35982860206303    7.53727942480995
H        18.39265311329621    9.36640918222511    6.69050212389616
C        18.10508094357422    9.95086905611553    8.73171959532451
H        19.07635299636295   10.41657699462536    8.81715119238216
C        17.24965854522820    9.94577216259810    9.81567587439799
H        17.55495119505099   10.40300959945911   10.74667528800309
C        15.25173641410002   11.07268630677023   11.69593060476504
C        16.01753892069015   11.48412671107655   12.77921540322654
H        16.48312124796183   10.76069517990089   13.43162207966447
C        16.20831096547405   12.83423124402461   13.02215470510720
H        16.80006321151657   13.14259035424823   13.87247694859551
C        15.65902695114940   13.78501007467082   12.18084549072354
H        15.81492159477224   14.83604480435609   12.37481139046935
C        14.91709057302067   13.38195652074073   11.08269012357590
H        14.49579043822877   14.11589087966207   10.41147084189643
C        14.71066921829461   12.03743879278593   10.84927983228256
H        14.12520923751485   11.71964532039017    9.99627286550124
C        11.48078031435980   10.93600867937529    8.95004704954885
C        12.59749779034988   10.73082297456031    8.14858983550083
H        13.44279917437355   10.19086069491371    8.55694164090946
C        12.62211035043568   11.18256083822259    6.84209751851969
H        13.49685100007541   11.01258680435065    6.23142965172519
C        11.52280567614039   11.84374289479213    6.32113658573313
H        11.53411566262471   12.19528774239794    5.29965964774860
C        10.40160957943444   12.04632351706185    7.11005524586881
H         9.53980058241385   12.55640803880427    6.70336421298759
C        10.37595577175673   11.59713292688680    8.41793609767926
H         9.49137122956622   11.74911064826610    9.02189779966423
C        11.80523565202716   11.90558749366803   11.59832357780974
C        11.45598307458298   13.15287275820863   11.09421123206194
H        11.03317033152076   13.24268133163936   10.10454788642637
C        11.66499108064896   14.29003067406159   11.85373097089530
H        11.39417309152940   15.25669911340299   11.45311443633955
C        12.21976254746264   14.19647907762244   13.11890391638353
H        12.38256928738207   15.08887477623107   13.70554868512341
C        12.56845461330632   12.95660286576632   13.62703423685893
H        13.00451153089387   12.87571176684308   14.61188297733271
C        12.36543643638625   11.81957896044142   12.86872060120753
H        12.64815383925042   10.84886673038558   13.25542718523311
C         9.77044635426942   10.07263121994874   10.99716324030014
C         9.17765729352939   10.46324591201379   12.19261554810134
H         9.75315336572892   11.02480307130637   12.91612449631542
C         7.86165743361341   10.12708834690220   12.45752039588259
H         7.40539965256132   10.43458241363998   13.38745750042886
C         7.13358750903961    9.38463588289521   11.54372970701647
H         6.11228806907570    9.10905275979410   11.76227663559320
C         7.72113322500072    8.98589289904818   10.35374929518299
H         7.15763733339158    8.40141543860548    9.64049497952344
C         9.03099070561128    9.32803811536195   10.07970290232672
H         9.49373360211653    9.01516529542712    9.15108114477437

