107
CSD_code = PERGEY | q = 0 | S = 0 | Stoichiometry = C54H45O4Si3V | MND = 4
V        12.02327032943187    3.49371189063815    1.21855878203907
Si        8.86294014998304    3.32493918588587    1.65811233955773
Si       13.85796988712101    3.28919413564371    3.86075820804874
Si       12.94629441479175    6.13785376729621   -0.16506504940296
O        10.45860203545570    3.62117986677721    1.69494061969111
O        12.95271043473639    3.64053452285146    2.55865913288213
O        12.30176592782418    4.68413935785171    0.11439564320578
O        12.26096944829161    2.14200847401691    0.56045357598364
C         8.08088782497018    4.79120646046323    2.58249107359081
C         7.45560891629807    4.66162092271566    3.81768816823618
C         6.93677320454899    5.76452880662911    4.47370568494023
C         7.04016925701724    7.02228297391001    3.90424921846678
C         7.66480734301988    7.17092216800916    2.67705335901098
C         8.17704752984782    6.06444571358880    2.02457615351633
C         8.64492844455118    1.63286032604491    2.48823674068333
C         7.42098187695983    1.17373372282400    2.96630959597058
C         7.32332013573059   -0.04722116091408    3.60964423556865
C         8.45213536348446   -0.83121404315037    3.78117139689959
C         9.67370227761269   -0.39748966446024    3.29269579315669
C         9.76896207065079    0.82307538923116    2.64842715429244
C         8.39499885018806    3.36631804711698   -0.18349815524163
C         9.36095080490902    3.03471913042428   -1.13137644901523
C         9.07645864583932    3.10304392410360   -2.48477556008552
C         7.81982042514386    3.50152411251288   -2.91056662833866
C         6.84853741524609    3.82807557810981   -1.97904774452139
C         7.13614861888185    3.76080485221834   -0.62739323924340
C        15.29505309970499    2.19518379242016    3.27890295722005
C        16.54001100072888    2.20643206691762    3.90037601766478
C        17.57208108670850    1.40880664964347    3.43858496931337
C        17.37328362617428    0.58642604419520    2.34194534494382
C        16.13967092533283    0.56551466344297    1.71081633735969
C        15.10794664307013    1.36144118987356    2.17703427699045
C        14.48493777693953    4.91968321700737    4.59799214309792
C        14.93894964614564    4.98562236597620    5.91158297248151
C        15.42559438456878    6.16867650423266    6.43720987282579
C        15.46301381644369    7.31167363113700    5.65509581157933
C        15.01138219259020    7.26405488624746    4.34723980604022
C        14.53069489220407    6.07662117851930    3.82688460735833
C        12.68414329311057    2.35582704532389    5.03164135471496
C        11.31094235196153    2.57352151006748    4.93740878239996
C        10.42336282480173    1.88467498845013    5.74444472972851
C        10.89657029137309    0.96635332114037    6.66632250168002
C        12.25895227550786    0.74358403309575    6.77854304888032
C        13.14241370884482    1.43217595697803    5.96663717734289
C        12.51840868971086    6.60582407367003   -1.94853424028637
C        13.26522572018560    7.53278894465547   -2.66648849845471
C        12.90959452565796    7.88656323432284   -3.95560121813511
C        11.79478596915565    7.31655824558270   -4.54793610263967
C        11.04099533727217    6.39046424258656   -3.84643129897920
C        11.40100424474664    6.04062463433558   -2.55789144986191
C        12.17932419986571    7.37232812725126    1.06662394302226
C        12.23821281224800    8.74804768053985    0.86148346683969
C        11.70354417950129    9.62983869784548    1.78340141041972
C        11.09599626454428    9.14853010859087    2.93149157756716
C        11.02055161867506    7.78310753951992    3.14924375626976
C        11.55799868667064    6.90697558159767    2.22332995969695
C        14.79183963432303    5.91469196889698    0.23791362363506
C        15.29237128281654    4.62654376274407    0.42085488681244
C        16.60042106364583    4.42452284809419    0.82499660029271
C        17.43057185818212    5.51035492406214    1.04958294035221
C        16.95171219676801    6.79595906202703    0.86058061769967
C        15.64276266029035    6.99389988910291    0.46004987871806
H         7.37400559725309    3.68371812240722    4.26975733436510
H         6.45235373483409    5.64367726422707    5.43230195033254
H         6.63895132510937    7.88449829580984    4.41719385400234
H         7.75618403165367    8.15044778025251    2.23003205019837
H         8.66514090017706    6.18684068161755    1.06657737359415
H         6.53748445601823    1.78144922558507    2.83107155172660
H         6.36667569834759   -0.38764183378126    3.97989145610737
H         8.37760796814137   -1.78167228716740    4.28935018947576
H        10.55494213404669   -1.00945921111573    3.41780014722267
H        10.72821166860668    1.16290943588250    2.26329597020178
H        10.35000867015332    2.72402850719909   -0.79966612175525
H         9.83740747049345    2.84702625963833   -3.20812073068949
H         7.59723946385968    3.55762239040864   -3.96651299831004
H         5.86719988657128    4.13885325768691   -2.30758364855001
H         6.37863586045477    4.02364983411665    0.09741046697553
H        16.70081652798563    2.85565631287602    4.74941923424549
H        18.53404346671591    1.43011712012355    3.93091124701576
H        18.17954430624617   -0.03438381199106    1.97813723925564
H        15.98270181092626   -0.07188324821969    0.85273625535866
H        14.14276616308946    1.35206996948272    1.68019446966732
H        14.90179826944787    4.09849694688894    6.52755989096187
H        15.77505308988823    6.20252112298597    7.45933603747066
H        15.84185895309572    8.23624268558934    6.06624272910685
H        15.03253219976168    8.15050364597090    3.72975013623583
H        14.18360547688469    6.04110299170908    2.80445151437504
H        10.93609833454411    3.28823343358910    4.21380648770697
H         9.36118549032399    2.05870088835382    5.65023681359319
H        10.20510563327931    0.42303752327735    7.29383719070622
H        12.63183780482503    0.02732006887540    7.49675013108978
H        14.20411755756793    1.24703494488936    6.04931854890472
H        14.14040643442951    7.97366754913585   -2.21117801985251
H        13.50266941115562    8.60606498438231   -4.50199557723363
H        11.51757261053124    7.59117158871021   -5.55549819113212
H        10.17107330139285    5.94031439852117   -4.30305745151715
H        10.81519048810782    5.31402586034438   -2.01018990753653
H        12.70213702318356    9.12748289812987   -0.03806736134765
H        11.75907939440528   10.69476362417021    1.60700207770262
H        10.67923150954062    9.83629119818315    3.65303365950482
H        10.54134014671534    7.40065608445084    4.03914462617477
H        11.49063343280551    5.83799474498808    2.40295489555999
H        14.64057537975068    3.77212428389001    0.24844923250305
H        16.97109935944978    3.42019981251620    0.96932295591168
H        18.44958472389611    5.35456562064099    1.37248474627711
H        17.59785656439990    7.64474941627325    1.03349292994402
H        15.26804985697422    7.99971454789060    0.33097799978516

