40
CSD_code = PERGOJ | q = 0 | S = 0 | Stoichiometry = C16H19Br2HgPS | MND = 3
Hg        1.40429446042483    6.83006603838178    1.60919047697509
Br        1.31566861419168    6.16523907061213    4.01313642346413
Br        1.05107006683681    8.36003798541596   -0.27117271957990
S         4.31759004697108    5.82458161216040    1.23266775950575
P         1.35825808744812    4.17373009465180    0.85312992924816
C         1.63481764798712    3.60779854084883   -0.85156245016428
C         1.84614289060464    4.55887625784075   -1.84355540469162
H         1.81075672098353    5.61214043872709   -1.59672737255111
C         2.09930683565382    4.15483608043466   -3.14301641907014
H         2.26183570631485    4.89455857728975   -3.91176905773875
C         2.13898346483306    2.80585811014690   -3.45202139343558
H         2.33364656196207    2.49013843886262   -4.46604990850487
C         1.92494413048499    1.85604981330917   -2.46368260018195
H         1.95285199106302    0.80438223648034   -2.70899867616037
C         1.67348229318105    2.25080699332854   -1.16397877184573
H         1.49522656742792    1.51290116273919   -0.39302954858980
C         0.02254208845284    3.11078863362425    1.46672819403082
C        -0.04272542337987    2.73882131806451    2.80686300431646
H         0.72593925291483    3.04484412995624    3.50073783346203
C        -1.11328733415277    1.98845570703443    3.25861912641127
H        -1.15915827496320    1.69819699952255    4.29731478829949
C        -2.12608974881295    1.61983445484349    2.38894311796969
H        -2.95952837021720    1.03438818573091    2.74701121883697
C        -2.07769168729690    2.01512339487744    1.06165379309604
H        -2.87396301930810    1.74294448321638    0.38482286869991
C        -1.01358571043024    2.76668812927135    0.60082722781956
H        -0.97749242213175    3.08700351885038   -0.43185107708240
C         2.84814616619967    3.47112629435743    1.70031315352501
H         2.78657208750615    3.72509784930807    2.76280551529687
H         2.81956956821287    2.38027096925074    1.59843789066438
C         4.13428621374737    4.01123907828008    1.09627432722163
H         4.17429172760209    3.80960587154400    0.02426852332387
H         5.01007764177770    3.57231146174801    1.57534536838808
C         4.95346568426840    5.97115641857769    2.94930894037686
H         4.26078929234669    5.45363315090856    3.61214317712624
H         5.92583728402379    5.47790858085438    2.96011719627334
C         5.07481400937278    7.43183893276753    3.33037730811550
H         5.74026183254105    7.95482745015702    2.64725605247332
H         5.46554394796636    7.51434987802300    4.34177401517097
H         4.09830910738653    7.91764365800025    3.30134816948525

