57
CSD_code = PERMUX | q = 0 | S = 0 | Stoichiometry = C28H24N2O2Pd | MND = 4
Pd        0.74219820845442    4.93925914940296   15.66497338986391
C        -0.03850919691009    6.82195573877242   17.83078338457053
C         0.38974518273972    7.87466604863588   15.64388310244104
H         0.52087481314537    8.83918785241569   15.14851000882250
C        -0.91863335899351    8.18234991146369   19.65445527424288
H        -1.18202975748303    8.29979356267728   20.69670919659073
C         1.55995414317592    7.03441315147589   13.77941254334590
H         1.14623485981142    6.35451809846414   13.02332572499015
H         1.48030828165682    8.07099907851925   13.42456852360980
C         0.39510042081917    1.99258420049658   15.61766318888134
H         0.44585860263943    1.02700154978509   16.12693061045954
C         0.42346872073362    3.04456011696027   13.38672148072129
C         1.09539720616105    2.87484029507886   17.69117361745327
H         0.36254013844678    3.35572542928957   18.35136488429786
H         1.16263747146504    1.80912871011085   17.96551361391141
O         0.43921590026655    5.67459597914836   17.52787180617790
N         0.65766878363524    3.03829659484371   16.32476435894120
C        -1.14373660760186    9.27388738197534   18.77592833955781
O         0.84607926033615    4.18837210747055   13.77849152617914
C        -1.66596319722877   11.37634036680821   17.04347185461605
H        -1.88750659019791   12.18755888974606   16.36474135839724
C        -0.17873683017429    7.92621535327257   16.94598610310973
C        -0.85089748263279   -0.36467222659203   14.41495679181496
H        -0.87669850919359   -0.29720069520029   15.49180608346897
N         0.82638815679760    6.83684924245751   15.01381099791957
C        -0.40866375695013    7.01448466751957   19.20452717264316
H        -0.25446950148109    6.17416338983211   19.86584149526160
C         0.10938751309202    1.93958798326521   14.22516443783189
C        -1.09587088657079   10.22450121196980   16.56237513278860
H        -0.90630466940617   10.15545194669409   15.50215955775409
C        -0.07447824133810    1.68618792437130   11.42280744953661
H        -0.12619854482933    1.57102216174096   10.34888726456705
C        -0.38905772798120    0.72126380195070   13.64663183992421
C        -0.79019121842841    9.14216120565149   17.40964704086249
C        -0.46281155405466    0.59098937405092   12.23724418290732
C         0.33176942131790    2.85473940198379   11.96700922178080
H         0.61160018945901    3.69689021606086   11.35076450038821
C         2.99739596875591    6.66478005081396   14.01665070072660
H         3.12509259323225    5.71255848810264   14.53373719589750
C        -1.33784982483421   -1.65004685710057   12.43907211960989
H        -1.69455540720268   -2.56513189523800   11.99050213538071
C        -1.72169132870529   10.46331454743509   19.24666851372054
H        -1.97145205063069   10.53517946751925   20.29602533446496
C        -1.97380053501973   11.50939537169089   18.39855615763356
H        -2.41772767203249   12.42291278896636   18.76505744383379
C        -0.92864574778715   -0.60046932349207   11.65934872637993
H        -0.96463818043997   -0.67088348173343   10.58123021836741
C        -1.30636191059029   -1.51871082885759   13.82852598955185
H        -1.65318931588749   -2.33294937468589   14.44859983711028
C         2.43070014211073    3.53427228283288   17.92096921730581
H         2.66755000878494    3.72647403126624   18.95862604209626
C         4.03028630911504    7.40403067149070   13.66232218961026
H         3.90843652631943    8.34602175155377   13.15187360100257
H         5.04406397364094    7.09555846898595   13.85138890117701
C         3.27969690973691    3.86518818193057   16.95977585128864
H         3.09130257499644    3.62478903439006   15.91442134262480
H         4.22121732377783    4.33844745145487   17.18497142161126

