65
CSD_code = PERMOP | q = 0 | S = 0 | Stoichiometry = C30H27FeN2O4P | MND = 5
Fe        3.39806114373533    5.29620101762826   -0.40759685258829
P         4.15964214292218    3.28657560371880    0.12430113154999
O         4.22227665623227    6.78033619290425    1.99275601844178
O         5.35875548638247    5.42404215722004   -2.59142367958358
O         0.77565750939490    4.00662755285818   -0.58248677247914
O         2.10935809238274    7.66470836451871   -1.47464808530922
N         3.03761904407412    3.47164094391366    2.51183116502331
N         2.02602886876646    1.97961312311813    4.98596713356235
C         3.90545704827094    6.14361108481982    1.08847296993525
C         4.59990903978201    5.35305056047072   -1.73012434914167
C         1.81059545803169    4.51076189808666   -0.50467806774862
C         2.63186182761797    6.73574016719947   -1.04347383538598
C         2.65314087934960    2.16917904183560    2.06264184829263
C         3.12025646940370    1.93118999964969    0.78143019111675
C         2.72108491612869    0.80464163041119    0.04361476266836
H         3.15025828608254    0.60009201034144   -0.92512617494706
C         1.71957614694579    0.02411813445487    0.53780690694690
H         1.31775651031788   -0.78703149892210   -0.05188080477127
C         1.16353790574562    0.26678999436258    1.81047769488078
C         0.03942385226121   -0.47378633974695    2.22948156973729
H        -0.37699292496511   -1.20565287528715    1.55376120567824
C        -0.52117613716099   -0.24955163386443    3.45258958374039
H        -1.41005993544050   -0.77937002817852    3.76105217598355
C         0.11520923656045    0.60689501708798    4.35605709000517
H        -0.27277283570097    0.67163359666627    5.36051805311245
C         1.25223798590394    1.30162469877203    4.01181686108833
C         1.72238547358497    1.26861888642668    2.66050269715796
C         4.05583583502527    3.60272893069255    3.54457606453470
H         4.59646449830541    4.53570249788834    3.37723364557193
H         4.76545199948437    2.78237252331068    3.48821924808740
H         3.61754328950956    3.63161529992374    4.54374155578869
C         1.87458950035003    4.28245701467543    2.84958009987519
H         2.18243688963048    5.32375682340022    2.92313408097159
H         1.42623968229537    3.98333992425999    3.80099490626070
H         1.12772440149699    4.19542471059952    2.06348682832018
C         3.17480534095895    1.17560278657766    5.37380974710022
H         3.84629044312866    1.77431459490952    5.98876723600572
H         3.70756515787772    0.84179109955923    4.48617785773589
H         2.87133553364799    0.28975880994350    5.95143110199817
C         1.31880735738675    2.47369620984304    6.15044471309191
H         0.40700198656092    2.98135930834279    5.84001602675838
H         1.96329272505103    3.19467345338135    6.65702566713014
H         1.06309083214953    1.68645152020585    6.87289608711649
C         5.71400978208919    3.07724683986690    1.05412278381216
C         6.57652714362320    4.15254122732839    1.21741845866380
H         6.29557420728704    5.12081044140277    0.82317405904235
C         7.78465815162275    3.98266081924664    1.87212847553828
H         8.45152872765738    4.82296450572521    1.99785309252654
C         8.13827413055972    2.73729936213402    2.36305476348231
H         9.07941888931543    2.60493053997492    2.87594139138364
C         7.28674095362913    1.65642232499275    2.18994781197342
H         7.56695534227289    0.68208403323741    2.56398068263320
C         6.08047985523317    1.82155758334594    1.53558370988956
H         5.41684694722266    0.97891609364904    1.39157444489384
C         4.69787423777083    2.48432593146547   -1.45231253492308
C         3.73944869636414    2.37343322702416   -2.46178132107490
H         2.73172175589316    2.72392626131637   -2.27321607839519
C         4.06314506878646    1.83273827088713   -3.68983285712660
H         3.30789817780557    1.74991631530585   -4.45787391645010
C         5.35996924512314    1.40965541934164   -3.93913495940522
H         5.61946362690477    0.99678424045588   -4.90267666714683
C         6.32090583656643    1.53101544073088   -2.95246817742877
H         7.33615771174974    1.21500167512984   -3.14395561929058
C         5.99588789217122    2.06430396148559   -1.71512923619489
H         6.76615000086785    2.15782067788317   -0.96357360968848

