57
CSD_code = PERNIM | q = 0 | S = 0 | Stoichiometry = C26H22CoN3O5 | MND = 6
Co        4.72274794954598   18.15148074736436    5.22327130547214
O         3.83898301543754   19.42857359265316    4.08364914233316
O         4.26102814233300   19.11159016281982    6.76521562172338
O         5.57547466918623   16.89487711538037    6.25854274302128
O         6.95182273458538   16.18550658431974    7.80548783041420
O         6.21778974128788   19.22686350415360    5.10772360007032
N         3.08802199640361   17.11886355710338    5.32456792306064
N         5.24534385130077   17.21524263329997    3.63893074097078
N         3.00232642248247   16.88807870054451    2.99131767021660
C         3.74493253938448   21.19137760482408    5.69262182777817
C         4.07286653592310   20.37454629235668    6.82281896833784
C         4.15712623205883   21.02776685437199    8.08311478375634
C         3.95579527642151   22.37096047790581    8.20186480212412
C         3.63456303815577   23.17823302747481    7.09006989720126
C         3.53140461199364   22.57811331337306    5.86618112387029
C         3.62488295899834   20.61278949705092    4.41315687205158
C         3.42469127351242   24.65031367793097    7.27967771513603
C         7.17179892634113   18.45088350212587    7.17370938343440
C         6.95533266774217   19.42593657680287    6.17991814707332
C         7.59196753503668   20.66922529031208    6.33606461146423
C         8.40212218238524   20.92317257143318    7.41936390611866
C         8.61533737101510   19.96169487076721    8.40437428752346
C         7.99327923156235   18.73481282014977    8.25767061718397
C         6.54239339225619   17.09621536846711    7.09959595411144
C         9.50783631033104   20.24978385348905    9.57598697736699
C         2.52495758294953   16.90360701898469    6.51535777303976
C         1.23275158151426   16.44346796751980    6.66277278904059
C         0.47775037822492   16.19614909466176    5.52203539757190
C         1.07027678101204   16.36683219939628    4.28832782499184
C         2.39781078091152   16.80552599115136    4.22481114444963
C         4.34706891396504   16.91281199799135    2.69600515186162
C         4.73237972447295   16.58177010588020    1.39076729489585
C         6.07283933087671   16.50573654300909    1.08009262727276
C         6.99928587163880   16.73702629589616    2.08903651664796
C         6.54092575651745   17.09337136779704    3.34058117428632
H         2.39694270829261   16.69928290097888    2.20409716942110
H         3.16409889784894   25.12955172138335    6.33955587156177
H         4.33081692364046   25.11469986288882    7.66696081508423
H         2.62515014068966   24.83191058372168    7.99718337011202
H         8.13010655473162   17.95230583250597    8.99072739516421
H         8.87396298002588   21.89257492842075    7.51100769418449
H         7.42724818389036   21.41938709645490    5.57610915073520
H         9.35599652567606   21.26582520260916    9.93807324571002
H         9.31351199686806   19.55262313784550   10.38754364202676
H        10.55537378199698   20.15063742790646    9.28647318585892
H         3.29186587466790   23.16581797422933    4.99005348904725
H         4.04853906381220   22.83976756797351    9.17164584633764
H         4.41477016043315   20.41952369811921    8.93636096162547
H         3.28124378450982   21.28325399561686    3.60946828788891
H         3.15238276031419   17.11764028832366    7.36723587600670
H         0.82243136774366   16.28835007158471    7.64656673866756
H        -0.54468114229917   15.85882605178888    5.59497540482624
H         0.53171920868740   16.15387452611241    3.37719453069878
H         3.97686683770000   16.38005708029301    0.64628947136581
H         6.38958497776795   16.25432031454292    0.07959996282853
H         8.05744332331439   16.65424675060786    1.90568909053898
H         7.23040978192280   17.30072220732998    4.14400465443786

