33
CSD_code = PERPAF | q = 0 | S = 0 | Stoichiometry = C14H12Cl2N4Pt | MND = 4
Pt        0.00010131047274   -0.00027037169079   -0.00009599552192
Cl       -1.19542301876129   -0.00565365428339   -1.97831375446272
N         1.32124380507785    1.40241862949541   -0.71182689353962
N         5.36053516327229   -1.93354054763420   -4.98013830555386
C         2.18429736906366    0.72167724139478   -1.62124877258779
C         3.20985417972643   -0.07985226368300   -1.12133479339725
H         3.34659321515265   -0.16527384259426   -0.05299494455386
C         4.02937314400031   -0.77105128372289   -1.98886903904521
H         4.82247823707428   -1.39727117344044   -1.60973783198825
C         3.83274252395895   -0.66164850287683   -3.36695293959605
C         4.67454856460122   -1.36611172104879   -4.25825247226437
C         2.80865437351295    0.14384268415088   -3.86606585537050
H         2.66035181331066    0.22221171439923   -4.93223745857991
C         1.99253080007471    0.83693389991819   -2.99520863395700
H         1.19104518109613    1.45057910309234   -3.37859487150576
H         0.81948239516673    2.16940093982783   -1.16836871052624
H         1.82403822142136    1.72916100614172    0.12149801797258
Cl        1.19551291619389    0.00572486298879    1.97829377981788
N        -1.32129573075836   -1.40254479902473    0.71191073891430
N        -5.36047252392193    1.93369501235378    4.98010928624532
C        -2.18431942690671   -0.72171484827412    1.62128773657226
C        -3.20981262572954    0.07986306066199    1.12132001238112
H        -3.34652612805041    0.16525293196249    0.05297546740814
C        -4.02930644861305    0.77113859483318    1.98881846366654
H        -4.82235349302373    1.39740750813079    1.60965010241943
C        -3.83272078686231    0.66175343365341    3.36690653939600
C        -4.67450817598709    1.36632130592989    4.25815022949387
C        -2.80871167712795   -0.14380273710194    3.86607455719634
H        -2.66045107016252   -0.22216853604705    4.93225168385233
C        -1.99260539279382   -0.83696935198212    2.99525563275554
H        -1.19118547414788   -1.45068162943873    3.37867199861960
H        -0.81959945099354   -2.16954675853072    1.16848624304100
H        -1.82409178931765   -1.72927990757403   -0.12141921730030

