51
CSD_code = PERRIP | q = 0 | S = 0 | Stoichiometry = C22H24Cl2N2Pd | MND = 4
Pd        1.44682004508608    9.73149002874109    2.16025919063395
Cl        0.47688722180768    8.41247940607984    3.65329406395090
Cl        2.55525791904665   10.64750146786530    3.87585639689791
C         2.39694649446025   10.09079867037209   -0.38118779418571
H         3.06277127528160   10.36194395063932   -1.19830739043326
N         0.48978769949964    9.02664177284020    0.45326419775017
N         2.52221240609764   10.60484004255284    0.79779994207267
C         1.30224735036959    9.19386774449807   -0.60083760705671
C        -2.12885768537800    6.89060298685049   -1.01519669047564
H        -2.32240049604377    6.34934892782233   -1.92986378394608
C         1.06567585023398    8.56385071588371   -1.84329001063300
H         1.76701596085365    8.71825665920173   -2.64834048970432
C        -0.02106344384224    7.75256328526834   -1.98184432426886
H        -0.20578967145732    7.21472269022934   -2.89991841491491
C        -0.66668872848023    8.33947073681594    0.29502469037377
C        -3.02525804531780    6.86413337781156    0.02062637428401
H        -3.93224882768664    6.28446039480779   -0.06197511296278
C        -1.63650378124648    8.34607784014852    1.31745714099209
H        -1.44857883100985    8.93894919748989    2.20315022581710
C        -2.78638599520895    7.61452224738193    1.18021319023682
H        -3.52243183260608    7.62083577312308    1.96936319268932
C        -0.94423479127178    7.64050676015583   -0.91617406693828
C         5.05011993141426    9.62650308295542    1.68990079054649
H         4.08280111789973    9.08707938603268    1.75044746278869
C         1.81200652407340   13.32438658153131    0.56066345318083
H         1.46569223486499   12.63296788231259   -0.21946565089985
C         4.19951794309824   13.82920326690548    1.28996930715341
H         3.99433308974161   14.88519152019893    1.22728035147229
C         0.86008464179603   13.20925129842155    1.76030028079858
H         0.76318563506799   12.16376424478094    2.10392078291384
H        -0.12958414581394   13.57002538630341    1.48695686417042
H         1.23492678586454   13.80308843463051    2.59065333719875
C         4.77404682864674   11.10588197894951    1.52291967493073
C         3.21001050776504   12.91168366865362    0.97383342014571
C         3.52208910984594   11.55000283121260    1.08360361261282
C         5.45568410279187   13.40834835568947    1.68834168602661
H         6.21538283310092   14.13919766992508    1.92167280163871
C         5.79568362897642    9.33111853962390    2.99124227635418
H         6.81031646929909    9.72004803462720    2.96886011841547
H         5.84809858279510    8.25571307531920    3.14677612322117
H         5.26081051415674    9.77612689320937    3.82624143656477
C         5.73854859326539   12.06149192613432    1.80668918456349
H         6.71787555841001   11.75180596830791    2.13413660080204
C         5.83044837069986    9.09655640841130    0.48375854760833
H         5.27659115181301    9.25028617806078   -0.44091209249360
H         6.02134774729139    8.03173931584192    0.59751759669979
H         6.78507602312990    9.61188449251271    0.39921056050400
C         1.74748063332448   14.73744152221387   -0.01850235475227
H         0.76476858584504   14.90939078467957   -0.45276847445675
H         2.49474187648701   14.87187509616404   -0.79770675058839
H         1.90543503111241   15.48398149982415    0.75548613270523

