52
CSD_code = PERSOU | q = 1 | S = 0 | Stoichiometry = C16H33MoN2(1+) | MND = 9
Mo        1.93793366082450    2.00558710007480    5.16281887184127
N         2.52992447868657    1.87105191747673    3.51782989081640
N         3.03456420177615    1.57869878982716    2.26918869314776
C         4.07597866991996    1.83691825226110    5.72303720709734
C         2.17359809474368    0.03784125058805    6.19854798688200
C         0.27996755642403    0.71318289433410    4.46091543154867
C         2.08542669655078    4.00750035647324    6.36551680497849
C         1.88276983043921    3.01193059217777    7.36643508915327
C         0.61869378143167    2.41944515389138    7.15110454232623
C         0.00333140444717    3.06564941297837    6.04156062787886
C         0.91739038296302    4.04097069098537    5.54438974572627
C         4.24353063510038    2.39999842307006    2.00854630499272
C         3.40157876743735    0.14153738303062    2.20388695485579
C         2.01346365526283    1.86721280090477    1.23116642808629
C         3.15885974968361    5.05610651765822    6.36883105077108
C         2.69687360927237    2.83261939487636    8.61154620429286
C        -0.07939727230446    1.51623709956007    8.12189714684229
C        -1.45656286924669    3.02319030308446    5.70498588901675
C         0.58758989504677    5.10088514092175    4.53249163573984
H         4.58892839048780    0.98027477623970    5.28350124220038
H         4.56092366627419    2.73625244157765    5.32810958242565
H         4.30446984069474    1.79974172455577    6.78393814617017
H         1.23689824320896   -0.42674243741693    6.49841332144137
H         2.66899986246491   -0.68409316723457    5.54505225818173
H         2.78834591262402    0.09767078800895    7.09513622763159
H        -0.44322084804322    0.40871152074782    5.21221803308143
H        -0.26988592459963    1.29205517470091    3.71078000587396
H         0.60707696840350   -0.20833908277276    3.97763662449710
H         4.98632364978273    2.18364641935288    2.77506472389068
H         4.65260670688028    2.17947768846690    1.02492331238800
H         3.97568665768541    3.45418126730549    2.06773728275462
H         2.51260334494675   -0.45664366220071    2.40137797632302
H         3.80892915898322   -0.10731409188162    1.22611539330033
H         4.13763229313659   -0.06698664897147    2.97990310445207
H         1.73981509818518    2.92018955268164    1.28602977986067
H         2.39855530339545    1.63871333369626    0.23969153561104
H         1.12915092980815    1.26397295028234    1.43194715548229
H         4.07457669377246    4.69232687709525    6.82968579549637
H         3.39291259372709    5.39628463978998    5.36015252406932
H         2.81724271726904    5.92053335929092    6.94209823625324
H         2.81010386469680    1.78223301902773    8.87489663384051
H         3.68428303262643    3.27772224545554    8.51866328878904
H         2.18477381721886    3.32648894199925    9.43988965384334
H        -0.61337257773157    2.12247321962158    8.85658407512260
H        -0.80659890904394    0.87513025159644    7.62809333213914
H         0.62754342550489    0.88675338420721    8.65645905120295
H        -1.96548586115248    3.81718071091890    6.25600270649990
H        -1.63776108599057    3.18688180471760    4.64400606838574
H        -1.91154858065667    2.07866970624432    5.99130650738672
H         1.48502175656247    5.48510083409110    4.04796936918977
H        -0.08810363269954    4.72226135922938    3.76558255885009
H         0.09215856315513    5.93892762544396    5.02733798733523

