58
CSD_code = PERVUD | q = 1 | S = 0 | Stoichiometry = C20H28N3O4PdS2(1+) | MND = 4
Pd        0.71753716110710    1.34543082135969    4.27981720785482
S         0.41857887111408   -1.08215429770614    4.21093445320879
S         0.76492611752691    3.21344213218037    5.73388042779961
O        -0.54812700296402    0.62579687448887    1.91709781852426
O         0.38252766589467    3.00534873281610    0.58386369615764
O         1.69499854152455    4.06402670272582    2.98339588495057
C        -1.15541907225954    1.38353282609297    4.93897031136988
C        -1.77011817439456    2.61489262612132    5.16029942745391
C        -3.13229172989409    2.67461321255518    5.42726156997243
C        -3.87588160585940    1.50840739518826    5.47856942239779
C        -3.25358626515422    0.28062676861772    5.34051590622891
C        -1.88574524016060    0.20691680907998    5.09271339572893
C        -1.18288942420237   -1.11861063312021    5.09901275294403
C        -0.11163358814727   -1.61581131846694    2.54673236262372
C        -1.11111151583699   -0.66608585735985    1.91124888812777
C        -1.38896861410355    1.61086383753904    1.35036665129359
C        -0.67398071364549    2.93825345536718    1.52559046173269
C         1.11779474578216    4.20341975351177    0.63542025640491
C         2.23558201226085    4.20535206744599    1.68457815516712
C         2.61733377412040    4.36863684414267    4.01000527007241
C         1.84122598513631    4.62051347236601    5.28858014818463
C        -0.88866090183031    3.82939535138630    5.20221110723653
N         4.76235735984701    0.24661171035098    4.38295580492337
O         3.01878839394850    0.94898931350395    5.65341919268608
C         3.47054799296954    0.74816926655982    4.54213060513551
N         2.75783991039980    1.00683542886543    3.41221350499320
N         2.42949423241905    0.89124027934852    1.15945206731716
C         3.22445181116549    0.69766642351825    2.21084297015795
C         4.54500244142913    0.16593785039177    2.05209926147483
C         5.27942197442262   -0.04175379385781    3.17020889277164
H        -3.60421958261816    3.62959749033493    5.60239515509854
H        -4.93700318341915    1.55409078458935    5.66623396397808
H        -3.82507265164465   -0.63022995471017    5.44394583249220
H        -1.78424258808691   -1.92780571801436    4.68324678486165
H        -0.91507248544657   -1.37916087707909    6.12752272174088
H         0.80280099510218   -1.65538327857429    1.95584034011362
H        -0.53046279829476   -2.61722087814501    2.63741640404552
H        -2.06057580473416   -0.66486809631719    2.46710386620135
H        -1.31586013099904   -0.98844833175918    0.87926040742160
H        -1.54946473872683    1.40147872380786    0.28470273435724
H        -2.35561925475640    1.63354377067045    1.87167239456295
H        -0.26987390116532    2.95703009739020    2.55560942174096
H        -1.36944148772257    3.77373196422453    1.37435819270534
H         1.57673656583099    4.32167975600360   -0.34932322432695
H         0.44607769244683    5.05109638019140    0.81873560204659
H         2.76987098957397    5.16343509943250    1.60595711009515
H         2.94891280600545    3.39591629255985    1.48144954842013
H         3.32213153662762    3.53610558382686    4.15013735450125
H         3.19173215500404    5.26988419505392    3.74892676508135
H         1.20256995544355    5.49646148527820    5.19193930908792
H         2.52895897063967    4.75511802466425    6.12200607120222
H        -1.23981573098269    4.55701282801276    5.93594233791808
H        -0.77914582512126    4.31050313868925    4.22965197659258
H         4.92770670500580   -0.06096050995961    1.07322381968255
H         6.28235436254817   -0.43971059816403    3.14271141151110
H         5.27818013240231    0.06091287394405    5.23300955897144
H         2.75272456612102    0.70913957856259    0.22562746502551
H         1.50521758830897    1.29664612048628    1.29010879992088

