66
CSD_code = PERYUJ | q = 0 | S = 0 | Stoichiometry = C35H26NNiO2P | MND = 7
Ni        9.57071459537010    0.77015876626581   10.94508021333943
P         7.65820670793004    1.61481839098406   11.44605698459860
O        10.63086352319770    5.65941804731942    3.12888163722502
O         8.51201047977271    5.96992171505851    3.26189664463888
N         9.56261488505976    5.53992512764061    3.70437753765987
C         9.76417982519031    1.78947186778389    9.43026924107160
C         9.76337381089379    2.48481152494339    8.42929658366688
C         9.72348488898338    3.28985601205118    7.27634288610625
C        10.68126627238455    3.16454662730952    6.28381461600466
H        11.48332184799684    2.45268251813323    6.40230220190836
C        10.60154210955422    3.94000722694428    5.13766494229989
H        11.34279010295625    3.83869067740241    4.35854748734925
C         9.56497558639189    4.83552760722142    4.94668639987973
C         8.56617449413776    5.02255987824731    5.94713178228220
C         7.51985075026938    5.96346393769779    5.86149133056406
H         7.42719887207950    6.57467044054057    4.97863489065730
C         6.61417107507989    6.10590799424958    6.87894967375701
H         5.82132401817582    6.83367069769259    6.78942214183739
C         6.70803387814041    5.32335929892306    8.03516829434935
H         5.98978922205859    5.44675154372896    8.83208738927090
C         7.71898535787059    4.41133560108971    8.15619372245037
H         7.81873357647138    3.80755251819045    9.04628636271416
C         8.66598620921142    4.23826866457638    7.12942273673551
C        10.27337108731135   -1.22264585051902   10.77789940034881
H        10.10661056894346   -1.97382592820126   10.02276354643166
C        11.30312003325986   -0.22860758150450   10.75372494173600
H        12.07832748358670   -0.16109369456328   10.00392694370052
C        11.34628780534634    0.40996742395075   12.03464472890211
H        12.11620275573355    1.08302459504267   12.37587334203215
C        10.26340675604220   -0.06600061612734   12.76470612883340
H        10.04559774945051    0.14464162220956   13.80142676645144
C         9.59612722829354   -1.07999786265412   11.98338331322733
H         8.80697807155235   -1.71665450141288   12.35736993775256
C         6.72552210361508    0.73531112303603   12.73833308821333
C         7.07251404440558    0.93486802026452   14.07233851002909
H         7.83706818890037    1.66024987800024   14.31950371867149
C         6.43848904573754    0.21778017250180   15.06872118496235
H         6.70629106973269    0.37880758230101   16.10284773272519
C         5.46367087534419   -0.71191360105436   14.74046085902496
H         4.97169460636811   -1.27501149266934   15.51950428840388
C         5.12550755274294   -0.92280529250953   13.41385561482566
H         4.37011325586234   -1.65123513526352   13.15793537088370
C         5.75663163234226   -0.20661334880945   12.41185893299485
H         5.50051458228980   -0.37399702525606   11.37461996828161
C         7.66150819099144    3.33165657198153   12.05036991315224
C         6.61901130347200    3.85852297467218   12.80787482729716
H         5.79264119831922    3.22861889651103   13.10852910466881
C         6.65261397992160    5.18601939262517   13.19503539252438
H         5.84246778341746    5.59302594675472   13.78248431187146
C         7.72083368540847    5.99189198596736   12.83426982347942
H         7.73950206901621    7.02788136579590   13.13814947737504
C         8.76868740884352    5.46577684070164   12.09650329151968
H         9.60767524044091    6.08877613257441   11.82572653660720
C         8.74233783687778    4.13825584188564   11.70989149898680
H         9.55987875223508    3.70314261784047   11.14354975606851
C         6.48367453422902    1.65386848688928   10.05045147092634
C         5.36860778700368    2.48276804767409   10.01904615455403
H         5.16100650782465    3.14656618110478   10.84508653153718
C         4.53556347477602    2.47235550295266    8.91474948604668
H         3.67427515434742    3.12342997482457    8.88720121880851
C         4.80508212474380    1.63676008695266    7.84335410986555
H         4.15569219037690    1.64056492768664    6.98089167701971
C         5.91016657409131    0.80187247008918    7.87569725840372
H         6.12273567061156    0.15134633099399    7.04075567324791
C         6.74738899641870    0.81145252647841    8.97512561128224
H         7.63361095043836    0.18262172774441    9.00985285734742

