61
CSD_code = PERZEU | q = 1 | S = 0 | Stoichiometry = C15H33ClN3O6P2Pt(1+) | MND = 4
C         4.92855743272733   14.51904777910575   10.18134964295358
H         5.29999690293020   14.64093926203597   11.19242548703802
C         5.31685966052050   15.38180204868295    9.17537537727640
H         5.99160267245391   16.19363114414551    9.39087540199825
C         4.83261127608196   15.16773092408581    7.89229657593400
H         5.12262554113965   15.81420766768807    7.07903712873451
C         3.97313160309279   14.10418153695361    7.67688769815838
H         3.56829442688332   13.90442078990116    6.69809916696143
C         3.62396565884742   13.27280512551882    8.73432727861704
C         2.69265407553158   12.11534260281079    8.55067877829663
H         3.17158344473384   11.22264528395763    8.96662703135946
H         2.51044683497186   11.94054241739532    7.49087360702425
C         1.35273227319623   12.36375507686553    9.25185326638234
H         1.40926521037369   13.21296374115144    9.93540475993203
C         0.32204813947337   14.97369438713137    6.74897707787409
H         0.70039555058975   15.26109773797068    5.76521337882673
H        -0.77073225473258   14.98324100397608    6.73817812939884
C         0.82110048829105   15.91654493547626    7.83013447087217
H         0.40053377526319   15.61371698880726    8.78655909523742
H         0.49702933306271   16.92924074814432    7.60864005210254
H         1.90721052118981   15.89563521303632    7.89004167665888
C        -1.32296779226394   10.87283479367215    6.81171841284857
H        -2.10701695665549   11.10166049101720    7.53977909761226
H        -1.22830352816931    9.79050049718389    6.69557939425331
C        -1.62507699401336   11.54797048495809    5.48677484284979
H        -1.73124705831633   12.62022468509256    5.64108272026869
H        -2.55105111136294   11.15631399028685    5.07485479402712
H        -0.81829429194014   11.37240875293976    4.77952110757685
C        -1.66861902349742   10.39864202721508   10.95778200238144
H        -2.54306651591591   11.05298216711464   10.99040247625685
H        -1.21420752773479   10.34828053179622   11.95302446174830
C        -2.04364021173698    9.01363467108308   10.46427343554578
H        -2.48332657660894    9.07827229290922    9.47283001079614
H        -2.76513957940008    8.56758629872780   11.14340569971738
H        -1.16183908059318    8.38069290226685   10.41289081464130
C         2.29973598360236    8.76369567521362    9.91149230653504
H         2.70213943693163    8.30695173748196    9.00441084000859
H         3.07872172292530    9.36917510265250   10.38500612154585
C         1.80392770947292    7.69991364604403   10.87558142904054
H         1.34981533963810    8.16779812603736   11.74618801056215
H         2.63679339854374    7.07925180145269   11.19416089674040
H         1.06382493613431    7.06724225240324   10.39294776349202
Cl        5.40617934359057   10.86474165194459   10.43677737174830
N         4.10287076041189   13.49074827263017    9.96766290845473
N         2.43455033515970   13.41518686232012   12.54053437232904
H         2.18647805875535   14.31238727263132   12.13419137267574
H         2.69397139197817   13.57126322170047   13.51122433255755
H         1.61713872782446   12.80136121224711   12.51402529629529
N         3.78233372248680   10.74042343105239   12.94407799459156
H         3.99390080677446   11.03105629949263   13.89775143935025
H         4.44560177451634   10.00815261166367   12.67720382840054
H         2.83645277907546   10.35379027663540   12.90880815269186
O        -0.75295632977465   11.04197975125603   10.06345826700817
O         1.22602909718307    9.60265187818659    9.47046700764229
O         1.26864124993100   10.95911267683519   11.64933044012232
O        -0.06849091855609   11.30065572876500    7.34505691022198
O        -1.22422875045708   13.32371385888602    8.53466403224954
O         0.78140826192938   13.64367018750215    6.96251085404148
P         0.80607148629135   10.92588697837746   10.23683046915153
P         0.01413693469393   12.72207705334687    8.04820621752790
Pt        3.85763642245303   12.17962143185087   11.44645701285241

