73
CSD_code = PESDUN | q = 0 | S = 0 | Stoichiometry = C34H32Cl2N4Ni | MND = 4
Ni        0.57521168092939    2.51685443876712    3.20862816298692
Cl        1.89465144965239    4.18272112875427    3.01312296244065
Cl       -0.67457235197263    0.82074741444986    3.52562414399304
N         2.47631533336811    1.46023944616900    1.25734237387503
N         0.81756762302040    2.44474102580304    0.31018297951766
N         0.49693118495905    3.17226404769130    6.07176758576923
N        -1.34113823524115    3.63026113951323    5.05235448185848
C         4.65323074592698    0.88865370502609    2.15027404823651
H         5.09499313971943    1.68607487609545    1.57194000432323
C         5.44990097428404    0.06116476666518    2.91976947930601
H         6.52002427859884    0.21150645904152    2.92639360963487
C         4.89344705979703   -0.95568439184747    3.68661364614967
C         3.51125867252157   -1.11721062057590    3.67562336507297
H         3.06210468603875   -1.89650714138397    4.27325988307092
C         2.70340557767213   -0.30402238498311    2.90430388179559
H         1.63256854450389   -0.44835846157205    2.88843075388873
C         3.27746202568889    0.70194067730669    2.13452104146061
C         5.75585909542392   -1.86421008228502    4.50863420975336
H         5.31958053108210   -2.02018802717345    5.49343653814998
H         6.75587498023165   -1.45371423670688    4.62609225684241
H         5.84077509365880   -2.83726328415677    4.02445097567648
C         2.81798713504641    1.63795482734433   -0.06042484724318
H         3.74779558607031    1.29009824909004   -0.46016797756434
C         1.77734059343333    2.25363468027287   -0.65513813487385
H         1.62642605282469    2.54109802342331   -1.67478097929601
C         1.24889651503297    1.97429508587591    1.50439892004653
C        -0.47828101855499    2.88530933277175   -0.03365846835957
C        -1.59727072028723    2.21049444111191    0.43849658022232
H        -1.48608903374315    1.43237101170770    1.17845022451383
C        -2.84564885485125    2.51867425162894   -0.06840385215708
H        -3.70702137666435    1.97557240061632    0.29077796192962
C        -3.00260875390727    3.48332037963758   -1.05541592004746
C        -1.88276114777232    4.19654219013538   -1.46857470871158
H        -1.98969065914751    4.97670840127803   -2.20913674135838
C        -0.62974687412621    3.90685210981848   -0.96447060989252
H         0.23228709832971    4.46652624449752   -1.29645600691102
C        -4.33374696203107    3.71830231865881   -1.70118612825907
H        -4.46731810128623    4.76592327286809   -1.96221949564025
H        -5.14428163963601    3.40493700568493   -1.04922293045376
H        -4.39866659859896    3.13697282639303   -2.62211130134603
C         2.51812248043015    1.94122363728508    5.55692278719695
H         1.98659251995081    1.41527165721456    4.76442081208835
C         3.85022352084821    1.67881181612556    5.80182902278112
H         4.36854445932154    0.95522238497301    5.19460982291763
C         4.53692722815979    2.33131966704029    6.81922319260065
C         3.85573183167930    3.26725483506506    7.58483588894881
H         4.37328500296212    3.79636214049050    8.37201581236162
C         2.52373458393630    3.54669563848264    7.34456532961075
H         2.02235917170662    4.30415595601931    7.92802581052869
C         1.84717935065326    2.87828925092736    6.33124020030003
C         5.97794083022170    2.01322185105256    7.07615651264476
H         6.42780363840842    2.74570480487784    7.74142209383296
H         6.53500241832883    1.99534130633820    6.14160574227635
H         6.06751919372042    1.02910092320564    7.53670059899639
C        -0.39788389222418    3.59259075777544    7.02526510444582
H        -0.15498544577307    3.62833639258369    8.06662261606994
C        -1.55284434453096    3.87261642173994    6.38705809352868
H        -2.48324783781187    4.24544672488278    6.76174118337132
C        -0.08344230021970    3.18175477092844    4.84971799209220
C        -2.28121966738757    3.94736276073825    4.05381248255535
C        -3.63745377998427    3.75568660929958    4.28931285389794
H        -3.96559860804717    3.25130477490401    5.18576150464435
C        -4.56106643069055    4.20817027784589    3.36907028535309
H        -5.61528658240336    4.06784651349365    3.56039929432157
C        -4.15649290123037    4.86163846415789    2.21007774629768
C        -2.79709236803899    4.99348881967621    1.96129933104421
H        -2.46182214832762    5.47981932538051    1.05768714901255
C        -1.85960781902883    4.53665755037753    2.86859879807206
H        -0.80041172792586    4.67399217984099    2.67912900910354
C        -5.17839745302687    5.43819082182127    1.27972292610716
H        -5.93940347796523    4.69988324430471    1.03462632044110
H        -4.71360195867608    5.78835184615031    0.36319301449582
H        -5.67856081689736    6.28158832779445    1.75640869966056

