68
CSD_code = PESFIC | q = 0 | S = 0 | Stoichiometry = C18H45Cl2IrP2 | MND = 7
Ir       -0.33285492134531    2.60980473652907   -0.24250566119602
Cl        0.37437676884085    1.44154785375941    1.75333979227326
Cl        2.03525280941077    2.87434173966746   -0.60445360013803
P        -0.21971957679982    4.68388635994808    0.98648436805441
P        -0.15919980800857    0.53775065240447   -1.46994002989161
C         1.44987938274569   -0.40253461896543   -1.26470628008421
C         1.89872611553857   -1.23790329230236   -2.46412730184825
C         1.45115406643671   -1.26753668877768   -0.00582434542031
C        -1.61171238360353   -0.61406371725642   -1.18599103476124
C        -1.82655274496002   -0.97291809477352    0.28390454860754
C        -1.61947264024239   -1.88014737663823   -2.03873075839064
C        -0.24736658235497    0.79878987692466   -3.32096251105041
C         0.82892354948635    1.78329725469931   -3.77643104171978
C        -1.61931914715108    1.28428395487499   -3.77992722468962
C         1.34106259335250    4.96747912340601    1.98645920353567
C         1.27904799771357    4.28869168360451    3.35345131392148
C         1.77263232811276    6.42440216811399    2.15811849148766
C        -1.72605967568699    4.97759411696690    2.06454016995389
C        -1.97545652257058    3.85986244876770    3.07675339825404
C        -1.78041861879224    6.33503679915766    2.76050444271469
C        -0.26746572718737    6.18053608281819   -0.13617111255377
C         0.85701649358630    6.11738763987550   -1.16810520759393
C        -1.60950969097861    6.33774306900679   -0.84532768743170
H         2.18166306633319    0.40111428988264   -1.11462459345493
H         2.10713361898576   -0.62912563103455   -3.33919356174696
H         1.16700478155089   -1.99810746714013   -2.72710002333101
H         2.82288235365763   -1.74769958495529   -2.19279117184601
H         0.87002294148243   -2.17569002232257   -0.15021777504267
H         1.05495218078706   -0.72105128003773    0.84543274423556
H         2.47409771232924   -1.55871213973608    0.23030222600841
H        -2.45430730981068    0.02229894037079   -1.48960687341618
H        -1.57870040406624   -0.13990381178368    0.93570119102198
H        -1.21811710171372   -1.82279572579888    0.57741752180082
H        -2.87048152497050   -1.23540025943236    0.44868698701897
H        -1.53068802109467   -1.66516273784753   -3.10043766834911
H        -2.56069998079208   -2.40637365300599   -1.88173703151417
H        -0.81554881777853   -2.55160063508279   -1.74866063713709
H        -0.04989241498198   -0.17535679551942   -3.77866207581456
H         1.76889620013255    1.62973513825776   -3.25216533803777
H         0.51104678141234    2.80412052184921   -3.57978571254783
H         1.00461821064428    1.68305761003224   -4.84672083941605
H        -1.56844336549016    1.56760316742191   -4.83023748729404
H        -2.37958841821196    0.51443338874134   -3.67822791199486
H        -1.92767471106611    2.15665094792109   -3.20656799612785
H         2.10585075678510    4.45048246531204    1.39343565777449
H         0.89340342460779    3.27648069357968    3.27199817044903
H         0.65966627417915    4.85363625792536    4.04657162940982
H         2.28300415613654    4.23116386218935    3.77261846773486
H         2.66586825782589    6.44002608085942    2.78221227948805
H         2.02652819158955    6.89723160475922    1.21386628186510
H         1.01029883192325    7.01754325094123    2.65774426473443
H        -2.53511062952587    4.92804364628793    1.32289952817920
H        -3.03383646050587    3.82326752466563    3.33020958556809
H        -1.68857152834529    2.89151413736717    2.67620614617232
H        -1.41801093624481    4.02390431034565    3.99377357647945
H        -2.74646301731473    6.44139300193611    3.25336798894838
H        -1.01145848416642    6.41404079020846    3.52451246840316
H        -1.66854681698479    7.16194740854316    2.06406276079285
H        -0.10671685343776    7.05199955209187    0.50607504203270
H         0.59922707127673    5.42310711681369   -1.96374688501908
H         1.79180414910193    5.77562787456892   -0.73126066502857
H         1.01688658207005    7.09900812291286   -1.61231571804482
H        -1.88527835625027    5.41443523676974   -1.35139632638821
H        -1.53142469869736    7.12543936162792   -1.59331374738518
H        -2.40564513493874    6.60870391424494   -0.15706549642096
H        -1.59294035316704    2.15269918292249    0.48260722801672
H        -1.65752952430723    2.98715800460694   -0.90481974683207
H        -0.15814474442279    3.37618056591551   -1.53859839594286

