81
CSD_code = PESGEZ | q = 1 | S = 0 | Stoichiometry = C41H37OsP2(1+) | MND = 9
Os        4.65101740618971   11.89854600814975   10.81389856541414
C         4.41402629886540   14.14108360490933   11.15789051270127
C         3.28378402267523   13.70471020546756   10.42493671316141
C         3.73095305961465   13.19946290702381    9.17917843639443
C         5.14240290368332   13.31104697704190    9.14455628584267
C         5.56494695940652   13.89219855312635   10.37084117885275
P         5.23821517297924   11.56560170388223   13.05733313311876
C         5.69787060447377    9.86054128348704   13.50477997442000
C         4.81111298775152    8.86173796014394   13.10881107180430
C         5.03463587762981    7.54901387985675   13.47549775660597
C         6.15223958620826    7.22286323293488   14.22809736343590
C         7.03731938400079    8.21242053129622   14.62067508515618
C         6.81080045583429    9.53301532429870   14.27028682686451
C         6.65180079564937   12.60566873229029   13.52140070135153
C         7.91114592700119   12.30888998864550   13.00314677838629
C         8.99124211309494   13.11789759892875   13.30100749055155
C         8.82046613488447   14.23678846692097   14.10280956907356
C         7.56680074632038   14.54595358307662   14.60412664651063
C         6.48196604692228   13.73673056984676   14.31383106487753
C         4.00742221906655   11.92618302266676   14.35232827999781
C         4.33765121150178   11.61208416857920   15.67005747773154
C         3.44499826916108   11.88461407145839   16.68860672743136
C         2.22068087326780   12.47075043269615   16.40376040831892
C         1.88926663691120   12.78233214809279   15.09619474637190
C         2.77972505547464   12.51009699757687   14.07162848227889
P         4.51197062254422    9.83858272961484    9.64643211254969
C         2.88983170541591    9.04834454425544    9.36741787820313
C         2.72716209138162    8.21666393875230    8.25713655208864
C         1.52302850489663    7.57414071324520    8.03959020541424
C         0.47074619040254    7.74521009829009    8.92600421905279
C         0.62913969547385    8.55963147116159   10.03429112090978
C         1.83285165861073    9.20738234454219   10.25477947620871
C         5.08171991440054   10.15713170972739    7.94479380277550
C         4.17091074736134   10.64145546616307    7.00680538023278
C         4.59109513754589   10.95959591095761    5.72946862977841
C         5.92348172429244   10.80428376961543    5.37870891887923
C         6.83238549575483   10.32684129931488    6.30871240712761
C         6.41779169733375   10.00691504846853    7.59024601373741
C         5.56142398788410    8.43583433536029   10.18803572187451
C         6.84936024415212    8.67618302973265   10.66123443540389
C         7.66982451894709    7.63128841756808   11.03948042999098
C         7.21417822429963    6.32592007122554   10.95438812758387
C         5.93308259706383    6.07736994179304   10.49458103329209
C         5.10788135537336    7.12216667596981   10.11546540464398
H         3.94981449026942    9.13506922405406   12.50931353308661
H         4.34072036615428    6.77927262422894   13.17443186837069
H         6.33021364121665    6.19739913503475   14.51307690636869
H         7.90440781058499    7.95853823921273   15.21160570616253
H         7.49863687288147   10.30133873629194   14.59382577189292
H         8.03295096440080   11.43961253518946   12.37108999269963
H         9.96787955887829   12.87975684678572   12.90710210434199
H         9.66429284829025   14.86871909860279   14.33321453139087
H         7.43169688280003   15.42008437348268   15.22293875591767
H         5.50487830708134   13.97824892087597   14.70904817756160
H         5.29318602638880   11.15609751336828   15.88830249549456
H         3.70292055986236   11.63923175414197   17.70745840541618
H         1.52560509018270   12.68244319098052   17.20147335744266
H         0.93616582184243   13.23792912393600   14.87321485536644
H         2.51837670629003   12.74602002478586   13.05024219492828
H         3.54624564264083    8.07507422913976    7.56557490825461
H         1.40669310345514    6.93636984598752    7.17655865879251
H        -0.46854155655503    7.24345493062502    8.75222045087660
H        -0.18576639810905    8.69168755837388   10.72967491003834
H         1.94960886130778    9.84660796321305   11.11935412370863
H         3.12901289315283   10.74864926558665    7.27834280614610
H         3.87958421973302   11.32770538699519    5.00554085517089
H         6.25030108543312   11.05241523193161    4.38071327856950
H         7.86912508312013   10.20155538002916    6.03531082648248
H         7.12744863163133    9.62972293262468    8.31178840461434
H         7.20225910537760    9.69426237729706   10.74589677889478
H         8.66589254179081    7.83436706690521   11.40255827814154
H         7.85410663443482    5.50845635083312   11.24809425182422
H         5.56921062457779    5.06322528430003   10.42939263508021
H         4.10895016547090    6.90523175608559    9.76998482635451
H         4.39379667534137   14.68741403691559   12.09063002309255
H         2.25138660881177   13.86757971908107   10.69870177926448
H         3.09602639210940   12.92508746248738    8.35017873797530
H         5.76794373126059   13.13357321074644    8.28114575444296
H         6.56563963396435   14.23056959136384   10.59976704931061
H         6.11012909167773   11.38082474111275   10.74545514120220
H         3.37664442001524   11.26623086916786   11.42412371876047

