32
CSD_code = PESGUQ | q = 0 | S = 0 | Stoichiometry = C13H14Cl2N2Pd | MND = 4
Pd        7.18397987543261   18.14135702991379   12.04546402477856
Cl        7.60809799831233   16.63177103465308   13.77522862223895
Cl       11.59956194391276   16.34274694628322    9.24954065741404
N         6.28832461434371   19.42992948962575   13.37054458976660
H         5.26829924065089   19.37561745321383   13.31056038606266
H         6.56993730400240   19.19366299144802   14.32702991377057
N         8.02254310120218   16.92828131239806   10.80408179061682
C         6.78610255651334   19.64043779867756   10.76555530333323
C         6.65754862709886   19.66820405190095    9.38188324283287
H         6.79079149076317   18.76057426119527    8.80324332569049
C         6.36082576581752   20.85079796656144    8.71754031156907
H         6.26815363125941   20.85173008755997    7.64046640736629
C         6.18257219580609   22.02692801577272    9.42350185298909
H         5.95029540060597   22.94397607404868    8.90200145619079
C         6.30019697398997   22.02584267650735   10.80368872046732
H         6.15920761741955   22.94097535821754   11.36312838143831
C         6.59928253240330   20.84562332177863   11.46351289231487
C         6.77429285451849   20.76290090206823   12.96561145016251
H         6.22669790576683   21.56636215807200   13.48327402071800
C         8.26228649025658   20.83865928805577   13.32313721171071
H         8.40383974705085   20.82805424469946   14.40296421075616
H         8.70308754954222   21.74648959970217   12.91921513278579
H         8.77472653504554   19.96308206665685   12.88473981245889
C         9.27820651827111   17.09243340274174   10.39089631172372
H         9.73843437511204   18.06071121820333   10.56736598860716
C         9.97756328668974   16.07373320373398    9.75806515666709
C         9.36185112258913   14.84803668274572    9.53983786650075
H         9.89153737186956   14.04425513802663    9.05448123282891
C         8.05160930508653   14.69856502392419    9.96991796020706
H         7.53329683190996   13.76383270953993    9.82710617257076
C         7.41610668766926   15.75552136155437   10.59462501876968
H         6.39344254908949   15.66910713052028   10.95839057469187

