34
CSD_code = PESGAV | q = 0 | S = 0 | Stoichiometry = C18H12CrO3 | MND = 9
Cr        0.71994877287303    2.88360855529857    2.06087356626184
C         0.48059210691460    4.38064972565352    3.75912655089536
C        -0.77648532320371    3.85369225982617    3.41635652894666
C        -1.34275577644867    3.97843566906877    2.11729791705709
C        -0.57921244789062    4.58461460417490    1.12967731319709
C        -0.84567816730773    5.01999799066679   -0.29938854566311
C         0.43178433975292    5.74017946854087   -0.68905051439998
C         0.86998108375856    6.36548826950623   -1.83924426032255
C         2.15620825452385    6.90372792817211   -1.84365453733928
C         3.02512859309929    6.81244426769165   -0.75879018313529
C         2.60958650954907    6.18249421452914    0.40426837801420
C         3.40679155105099    5.84171759392451    1.63867622614479
C         2.56317696133641    5.75075363642273    2.93306445155588
C         1.27936690827809    4.97480854500534    2.76116295120072
C         1.31688678670006    5.69506159880508    0.38433168085638
C         0.71434272982548    5.02733066469634    1.48951975531581
C         0.21020543781106    1.16453875790758    2.39126423948785
C         1.17556131842456    2.20745085953701    0.43265535745159
C         2.34666248287088    2.19398383821992    2.48871920930538
O        -0.03927471865909    0.05015972293188    2.56851587063754
O         1.50567435194062    1.74717478775317   -0.57485329253357
O         3.37232933571398    1.70937525296636    2.71582102317738
H         0.80448788994263    4.37131022017584    4.79384701167023
H        -1.39928582996511    3.44612671472553    4.20514729062362
H        -2.36404446846297    3.66017599529965    1.94470724952818
H        -1.71854766294682    5.67718234647842   -0.35802547010030
H        -1.02975220748784    4.16724381824518   -0.95793037142330
H         0.24926249669101    6.44033772488158   -2.71957802329538
H         2.50218750120550    7.40030106825315   -2.73842233090551
H         4.02061519714087    7.22425172034765   -0.83774518097156
H         4.21553675804564    6.55868107795416    1.79011721854470
H         3.86063829747493    4.85890136753374    1.46068401390101
H         2.29359911140877    6.76572879633938    3.25399218599493
H         3.17748182603977    5.30967093846702    3.72115672032162

