103
CSD_code = PESHON | q = 0 | S = 0 | Stoichiometry = C50H44N6S2Zn | MND = 6
Zn        3.43760916684757   15.88425093215997    9.79447776528705
N         5.30878832334080   16.11630446125872    9.41634350806038
C         6.21975741960431   16.85986367839786    9.37505378038342
S         7.46950946194884   17.82876601870041    9.35477444164907
N         1.55056429231524   15.83245632852789   10.16713971138263
C         0.55298046710947   16.45660405093362   10.16765336204774
S        -0.80210216434547   17.27271203669446   10.14138623484296
N         3.25056839334276   14.17464583135281    8.39711621183010
C         4.34161623206594   13.45537501496016    8.17342627098176
H         5.27864923052270   13.96924549056790    8.33078595131763
C         4.30562894775702   12.12788252212147    7.78334178173762
H         5.22553858151787   11.58102071055185    7.64194516843735
C         3.07773189913671   11.50674708513816    7.59102389137406
C         1.93844956434467   12.28678253096205    7.76976066586183
H         0.95817274959837   11.86152583781205    7.61751593855184
C         2.07420417527540   13.59917826549699    8.17957589529082
H         1.20480181015144   14.21200270435534    8.36659599595709
C         2.96317918462282   10.05856882384762    7.23074194265986
H         3.96122499629600    9.62196934029857    7.13575777203226
H         2.47092528054721    9.96923284190311    6.25748146113569
C         2.17766059306978    9.25688113939940    8.24288873537456
C         2.01508147878411    9.68904026500845    9.55148182399382
H         2.45205118154508   10.62445505431774    9.86960580721874
C         1.29560181209536    8.92851052774377   10.45595882979638
H         1.16661137882083    9.28122832063429   11.46849751058316
C         0.74079944454987    7.72167037703592   10.07067807801519
H         0.17906612712706    7.13050408955891   10.77838523511300
C         0.91040610418749    7.27648089701848    8.77111191277928
H         0.48322994209883    6.33424951099389    8.46076182224949
C         1.62028688410379    8.04167813124510    7.86448127698162
H         1.74330601768803    7.69271833240069    6.84868316912237
N         3.01537837800798   17.48695035382418    8.24718528326008
C         3.61278587120557   18.66158714405577    8.41849039927321
H         4.60114886310324   18.63717217619655    8.85307763610936
C         3.03035319271939   19.86721647307168    8.07959856215747
H         3.55102400297383   20.79288401599733    8.27229167033809
C         1.75226126274614   19.87220958598052    7.53012478634437
C         1.16700185927119   18.63853692153726    7.27234780592743
H         0.18931529822402   18.57414764562895    6.81956226596158
C         1.83347127162262   17.48530919842486    7.64310641826572
H         1.39348800086227   16.51541245583357    7.46515820135141
C         1.03124756715113   21.16586359799011    7.30004560490221
H         1.61674438564260   21.80746649858276    6.63765597389508
H         0.06336811632678   20.97431102761039    6.82984959330566
C         0.82709811082457   21.86136002845726    8.62456596516622
C         0.27127960433569   21.16681314953509    9.69305767760510
H        -0.02885118958176   20.13664621336295    9.56762579953499
C         0.10056948286187   21.78604707317040   10.91799637729795
H        -0.32880159945611   21.23261384773530   11.74025891834411
C         0.47729696935458   23.10836429376418   11.08835581821628
H         0.34326117017449   23.59158919817704   12.04541415735997
C         1.02126552410532   23.80828503079553   10.02582125516362
H         1.30901931350665   24.84259578998631   10.14885212896575
C         1.19895964725602   23.18557960168271    8.80216686087361
H         1.62636394174298   23.73583776656276    7.97588360765035
N         3.87404993968615   14.22158877283301   11.19277782954157
C         2.89420966406481   13.39948972379458   11.54396887936126
H         1.89309738431430   13.76533247703389   11.36817073486280
C         3.11786198466952   12.14854945853965   12.09134876864825
H         2.28386846248772   11.51457240888223   12.35118703871149
C         4.42360014857547   11.71753605818972   12.30218607824006
C         5.44236206516401   12.60246409447545   11.96554311674056
H         6.47656271692992   12.33788964990793   12.12867148673839
C         5.12132414721768   13.82940510062421   11.41393151824062
H         5.89438032592199   14.52374482653160   11.11865880729583
C         4.72020042757604   10.34403509542706   12.82316071524416
H         5.70932570310251   10.33602315795135   13.29013332664004
H         3.98332289156138   10.06380133653034   13.57800509685141
C         4.70200166866099    9.32097786471313   11.70844646814601
C         4.04804490764917    8.10900022460258   11.87808653839618
H         3.53584419816298    7.90201868833529   12.80701479970681
C         4.04980417915127    7.15849935968545   10.87237099242984
H         3.53456470093898    6.22120053818542   11.01909721967962
C         4.70847055064818    7.40855609562294    9.68252167090478
H         4.71054658920977    6.66764473447733    8.89730687252653
C         5.36723515735886    8.61316092197455    9.50701044411248
H         5.89900773178045    8.80883195297641    8.58682492119906
C         5.36116975715988    9.56474979865694   10.51009947372075
H         5.87460768750856   10.50385943624703   10.36099022325890
N         3.62967100311104   17.49751530924249   11.39082281550053
C         4.82534774595562   17.70133144376391   11.93081489755753
H         5.42836914571510   16.82039466299708   12.09422243024069
C         5.31142353985086   18.95503194192207   12.25231041037866
H         6.30852952993132   19.06038166424333   12.65203665093433
C         4.51817468286800   20.07108159223862   12.01328884428401
C         3.22945377249763   19.84557440492616   11.54158134999271
H         2.55352247889761   20.66934866423325   11.36779219032426
C         2.83743690952934   18.55462411399083   11.24629450754161
H         1.84619206701669   18.35905432593873   10.86584822521018
C         5.03861640597942   21.46920099127104   12.15549533581535
H         6.00324307059822   21.46236267642180   12.66756597637946
H         4.33815163210347   22.07930210937633   12.72877167463602
C         5.19460073142842   22.04205097708057   10.76613866902177
C         4.48416881686517   23.16487224381800   10.36916869057311
H         3.82168232260653   23.65677286891701   11.06731622744543
C         4.62000716895766   23.66290541351193    9.08431219069817
H         4.07146152579107   24.54636632977051    8.79244385004978
C         5.45461613073887   23.03223245834530    8.17860796826374
H         5.55580078184253   23.41695971200902    7.17414768427250
C         6.16116600310335   21.90493985222012    8.56587330643937
H         6.81102612298633   21.40201745669952    7.86562899646660
C         6.03441188280124   21.41505046932597    9.85247311933793
H         6.58761551847018   20.53494630232753   10.14530624814315

