99
CSD_code = PESHUT | q = 0 | S = 0 | Stoichiometry = C50H36CdN6O4S2 | MND = 6
Cd        4.55586920982597   10.50125157933717    5.58325056020596
N         2.60947285853877   10.58552748268630    6.34320012326787
C         1.62566641090645   11.22237570009310    6.46472836026818
S         0.29906082250765   12.07029453293933    6.65097753360788
N         4.10160384773823    8.29452793014817    4.68228948973034
C         4.93054274058336    7.61870906414567    3.89409980689828
H         5.85717277382824    8.11343289175466    3.63451649338469
C         4.65312289001457    6.34737286470489    3.41994324901494
H         5.34428389739503    5.83046511634436    2.77263146870756
C         3.46243014491897    5.73407484416414    3.79793510313765
C         2.59089690641870    6.44758877704874    4.61679527540404
H         1.64309068611010    6.02575726880490    4.91481947482903
C         2.95346934474182    7.72050594903348    5.02571498791530
H         2.30130196946289    8.31224869380220    5.65636770321303
C         3.12707412148914    4.37375414186743    3.27342063393710
C         2.52189513022361    3.42378623761339    4.23411743718283
C         1.74323541368759    2.38077754653835    3.73254256263041
H         1.59492335173384    2.31496691807967    2.66503690138843
C         1.16990549598483    1.46334629676251    4.59095350624631
H         0.55944954387679    0.66440187568695    4.19793469544462
C         1.38456110490076    1.56655207959138    5.95655856960501
H         0.94053158315470    0.84757834045932    6.62879360265080
C         2.17582224429222    2.58691733361877    6.46088215800735
H         2.35272534670082    2.65688928872708    7.52391228410164
C         2.74105540810099    3.51665468644493    5.60808582400930
H         3.37159178212534    4.29899816661777    6.00520766488839
O         3.34140430461666    4.08568962550626    2.11623546558156
N         3.80774329748677   11.52249279915568    3.52332350013960
C         4.53337422241481   11.31209903470590    2.42967063682869
H         5.46353750916949   10.77715695183096    2.57533737524083
C         4.14785948693883   11.74868967061388    1.17391207818985
H         4.75321842952564   11.55321203883307    0.30232100897695
C         2.95445597482344   12.45429077562578    1.04300686813004
C         2.19293090439405   12.66715769814506    2.18877639214005
H         1.24619495761559   13.18264437883687    2.13878871722645
C         2.66144910890934   12.18148495024661    3.39930065330886
H         2.08974359534713   12.32728367705043    4.30654049562308
C         2.50421664423847   12.89656842158512   -0.31317654567075
C         1.84177522388647   14.21722856968674   -0.39952391559148
C         0.95050416929006   14.44176583408685   -1.44879452405827
H         0.76441259698842   13.64045997275142   -2.14820424875697
C         0.31506524998970   15.66138302452843   -1.57524892253090
H        -0.38260928372604   15.82532129147683   -2.38259968549440
C         0.57841958209379   16.67539505509949   -0.66755374526915
H         0.08453874701872   17.63049261237862   -0.76660384117990
C         1.48184336073528   16.46840507086927    0.36322249768459
H         1.69594869622791   17.26454081176932    1.06068793353042
C         2.11073054638491   15.24529624973271    0.50337245283950
H         2.82816753885355   15.09610026167707    1.29730104815660
O         2.67610048059761   12.18807152044937   -1.28154161679270
N         6.50251041611139   10.41664188365175    4.82401624646960
C         7.48491096104044    9.77788034323516    4.70134083445403
S         8.81382459569488    8.93363781347878    4.51505553761617
N         5.01001503098262   12.70780476310035    6.48432015885615
C         4.18108731973078   13.38362604404895    7.27251294120857
H         3.25447545459562   12.88889414174632    7.53214589186037
C         4.45851742024611   14.65496334292616    7.74665266800856
H         3.76738912609678   15.17185091918643    8.39401449667944
C         5.64920308647524   15.26825482177408    7.36862371325561
C         6.52070693165926   14.55474912486401    6.54972800682458
H         7.46849525048212   14.97658398431249    6.25165359544443
C         6.15812689639242   13.28182996885513    6.14083155285337
H         6.81026331097241   12.69008640191521    5.51014276534963
C         5.98459400567070   16.62854971630971    7.89316538084016
C         6.58971234990761   17.57855598344852    6.93246923638317
C         7.36830769419175   18.62159576125937    7.43407539972845
H         7.51661212434574   18.68737675943754    8.50158367346071
C         7.94164765579968   19.53904141472724    6.57568930304496
H         8.55210079315192   20.33797537457601    6.96873306571061
C         7.72704899910184   19.43582783990638    5.21007516822925
H         8.17109808319683   20.15480429721408    4.53785575049543
C         6.93584959719508   18.41543097265444    4.70571941493332
H         6.75896927209176   18.34547184689714    3.64268474384298
C         6.37061233629654   17.48567344433641    5.55849208289963
H         5.74008647334666   16.70333401846434    5.16134416939120
O         5.77023597064119   16.91660206802667    9.05034968449340
N         5.30402079632243    9.47978880470344    7.64323230235797
C         4.57840029029302    9.69021050273609    8.73688946285524
H         3.64825049975408   10.22517476797711    8.59122254505752
C         4.96391661752004    9.25364217576957    9.99265693859358
H         4.35856509781107    9.44914746358939   10.86424807272143
C         6.15731844926257    8.54804165563130   10.12357448190402
C         6.91883585278683    8.33514352957945    8.97780616605395
H         7.86557399206501    7.81966311563450    9.02780197490077
C         6.45029689010907    8.82076833544381    7.76726959129716
H         7.02201997156689    8.67496857874759    6.86003898725435
C         6.60755988765549    8.10574184539290   11.47975047262581
C         7.26995366457672    6.78505308923262   11.56606182753674
C         8.16124469726763    6.56046989038992   12.61530644327560
H         8.34740351790878    7.36177586063139   13.31469824107904
C         8.79662889029894    5.34082232807539   12.74173902934011
H         9.49434795760861    5.17686112038748   13.54904675435415
C         8.53319053979268    4.32682416528136   11.83405269898575
H         9.02703838996643    3.37170673549845   11.93307360455996
C         7.62976123793345    4.53386702221989   10.80329236837049
H         7.41559003831150    3.73773827406552   10.10583913515406
C         7.00093309518587    5.75700806797655   10.66315992873224
H         6.28346038280551    5.90623012898049    9.86926790090288
O         6.43570771470721    8.81422358804861   12.44813004183450

