39
CSD_code = PESHEB | q = 0 | S = 0 | Stoichiometry = C18H14N4O2Zn | MND = 4
Zn        3.47008023984523    7.60257115330600   16.08693177881317
N         3.45112636094156    8.76143807813529   14.51516443475405
N         4.22678293838949    9.63934978018461   12.67067729347240
N         2.80180817068403    8.26767181623178   17.79707317245272
N         1.73222194995237    8.15516586059735   19.69947955422558
C         2.40869006099681    9.28927121752321   13.81212692185663
H         1.40686203055331    9.22923914462629   14.18585283278869
C         2.87394041893035    9.83946150662366   12.66254149734481
H         2.37504156600899   10.34218127546245   11.86055563154156
C         4.55926495012151    8.97684786750422   13.80897961192041
C         5.90166045781159    8.59188210947006   14.15674425999375
C         6.97476295996287    9.01807452489687   13.35694007334624
H         6.78714568047840    9.65899680066610   12.50592270601914
C         8.27199479138879    8.66072213597573   13.62794395236870
H         9.07568634338666    9.00770363995561   12.99661993020349
C         8.53963794360166    7.84519730242973   14.72655898264909
H         9.55773413083814    7.55558989153104   14.94412060441257
C         7.51775371626421    7.41561994892859   15.53003802804219
H         7.70893589714204    6.78666862920414   16.38614772830173
C         6.16728057180522    7.76942787967314   15.29136867159508
C         3.29692567012933    9.22514027395775   18.63237872219830
H         4.08637676453965    9.87596506045525   18.31587470818066
C         2.64243786042273    9.16879189089818   19.81961896668129
H         2.74183329174671    9.74487835425839   20.71577466256196
C         1.84734095097375    7.61583603727396   18.45812801844750
C         1.04936297984748    6.51873325603470   17.97790361910768
C        -0.03064485507087    6.05781681111804   18.74836112024396
H        -0.27997437681948    6.55891082337581   19.67418663161603
C        -0.80440932155141    4.99470443636028   18.35441480748838
H        -1.63149602255470    4.66694995139075   18.96551525676619
C        -0.50983049789301    4.34344063474789   17.15742188879038
H        -1.10972834930497    3.50121588152428   16.84359360561994
C         0.53163302687430    4.77158163552239   16.37845301504441
H         0.76864442358760    4.28096489436729   15.44666163222179
C         1.34466667921943    5.87302970541246   16.74096575445311
O         5.26850291420644    7.33288466144676   16.10945158995386
O         2.29369325866878    6.22256473392847   15.93789661584436
H         4.86379046771809    9.91401537099001   11.94299930543153
H         1.10426395615779    7.84249502401100   20.41981241324721

