70
CSD_code = PESJUS | q = 1 | S = 0 | Stoichiometry = C32H32ClNP3Pt(1+) | MND = 4
Pt        0.05015693382958   -2.32886245921852    5.64932021848032
Cl        0.99992891378125   -2.91339964843743    7.64213787561867
P        -0.05502353509301   -0.04155607490549    6.03829730292407
N        -0.67881524466460    0.19168505103793    4.45747557309101
P        -0.96405206404955   -1.35853027164145    3.81394389583337
P         0.29139776780547   -4.53760286775832    5.08203655934800
C         2.60159263620177   -0.07587976732311    5.48217789600708
C         3.87409856340432    0.43812837650491    5.32447712061986
C         4.12099018176411    1.76596671493247    5.64045065301847
C         3.09896308120261    2.57774940766894    6.10754709330188
C         1.82136356318676    2.06970131741119    6.26595514592583
C         1.57487509500414    0.73782053891992    5.95460081639683
C        -0.56378708823360    1.24287024397910    8.41117470475461
C        -1.33620740582082    1.94564675097794    9.31601125644858
C        -2.62170133137307    2.33692673911453    8.97267814855021
C        -3.14118194214203    2.01535621756820    7.72869140919981
C        -2.37657469909326    1.30920514149975    6.81745074123837
C        -1.07675774723213    0.94197389487486    7.15043612379618
C        -3.62219324040809   -1.18545939617144    2.82390090534627
C        -4.99139110902275   -1.28096895076300    3.00860343753540
C        -5.50574236207931   -1.70542166886749    4.22342330258440
C        -4.65430406739357   -2.03495802832815    5.26836398030810
C        -3.28783684777620   -1.94698232777804    5.08785104526867
C        -2.76864077931040   -1.52711973549317    3.86487693482517
C        -0.95737180627951   -2.17983820984397    1.17254250661699
C        -0.51325280673369   -2.16097593128767   -0.13615172146183
C         0.44285355047679   -1.23803157768059   -0.53206158873635
C         0.96485329213175   -0.33791148491880    0.38386852159939
C         0.52984397466911   -0.35272491310466    1.69662210522377
C        -0.44941722262578   -1.26110411804399    2.08787771566872
C        -1.99679154177284   -4.88622707302896    3.61283400397711
C        -2.75709771061439   -5.20786151400713    2.50497277168106
C        -2.13406380475602   -5.63658569553264    1.34201248573837
C        -0.75358677511818   -5.73376403206572    1.29222061232997
C         0.01127704883631   -5.41118886524202    2.40092094255898
C        -0.60820827797350   -4.99663860206117    3.57259720303096
C        -0.27031398755234   -5.76886138127105    6.30131955083647
C         2.03697831370383   -4.97709550132636    4.81813564312364
H        -1.02188640527180    1.06536879140058    4.07189473349137
H         2.38549816819782   -1.12128953793467    5.25461263553586
H         4.67421673161871   -0.19093707640743    4.96549893941059
H         5.11548591062053    2.16900825653476    5.52600018583871
H         3.29858241348162    3.60999035781993    6.35128145179641
H         1.02292710937138    2.69858770915542    6.63397682407723
H         0.43595062263175    0.92103674245252    8.66934770632076
H        -0.93932745164073    2.18559447277982   10.29030330107372
H        -3.22308223627503    2.88668769202088    9.68002091727644
H        -4.14631630117111    2.31082784952920    7.46942065561609
H        -2.78775681914516    1.04143005745118    5.85320678700917
H        -3.21950847973109   -0.84907358866541    1.87919371757421
H        -5.65912978233015   -1.02010072128067    2.20178321157462
H        -6.57391734571092   -1.77768126502306    4.35830270964829
H        -5.05789980133480   -2.35913893032977    6.21541873265910
H        -2.59835660920993   -2.20216597822859    5.89582029765137
H        -1.69844809575839   -2.89845964958809    1.49181787107111
H        -0.91263711547717   -2.86725649423302   -0.84769681616041
H         0.78592835273853   -1.22377655490885   -1.55494553724297
H         1.71567500203950    0.37327893886499    0.07524470349204
H         0.94436548380020    0.33568292897072    2.42023086249467
H        -2.47722628410577   -4.55246213961559    4.52309905830725
H        -3.83285665868058   -5.12502096951502    2.54650909524799
H        -2.72550469856960   -5.89252841585372    0.47638599383186
H        -0.26801748060846   -6.06513404776108    0.38703584828902
H         1.08606155049253   -5.49096736391068    2.34845064942474
H        -0.08230007206577   -6.77017926259952    5.91344566515431
H         0.28085703255132   -5.61511008883763    7.22797073657274
H        -1.33404528053948   -5.64943913261443    6.49885816178193
H         2.12332902010056   -6.02975298172561    4.54926366203843
H         2.47247383396442   -4.35351360210859    4.03818571436863
H         2.56720616716315   -4.79498629404750    5.75326863268731

