55
CSD_code = PESJIJ | q = 0 | S = 0 | Stoichiometry = C26H22N4S2Zn | MND = 4
Zn        4.14023085490873    6.62511552823973    4.64783104729061
N         4.83504204282382    7.38610530693909    6.16345457880873
C         5.03941790829951    7.96507649042429    7.17250249290665
S         5.27794670288378    8.76130533514828    8.50438048394995
N         4.83359498180208    5.37036449774132    3.50496449594433
C         5.04618748549149    4.63033961502623    2.60933581860139
S         5.28745187063914    3.64757215791014    1.40890207395513
N         2.30029954363368    5.87386498097940    5.23158659640479
C         1.66623348185641    6.38344055923964    6.28387375598438
H         2.11643385016329    7.25722738685519    6.73276591931618
C         0.50447673099997    5.83935552444854    6.79688194668755
H         0.03159797895656    6.29646642292559    7.65243394664219
C        -0.04165381038307    4.70532763065973    6.20424831339325
C         0.63170415747122    4.17830776580147    5.10495712524500
H         0.26202093944498    3.29463033965960    4.60881216419800
C         1.78598276444278    4.78824862579904    4.65715030114698
H         2.33130736667099    4.39639371580070    3.81050384937951
C        -1.26325104178935    4.03409183121808    6.75297073195831
H        -1.93392828323431    3.75782374898971    5.93777696429547
H        -1.78827320468938    4.70854336422407    7.43143033326314
C        -0.82903489829304    2.79059416440094    7.49611180997002
C        -0.20481086423591    2.90509370093597    8.73153042712825
H        -0.05247436643836    3.88277036033377    9.16578642101730
C         0.22060699903781    1.77707427793993    9.40900192286364
H         0.70273798662573    1.87814429255706   10.36978179856138
C         0.03017127298228    0.52188845644019    8.85583987277330
H         0.36255678418998   -0.35887211101929    9.38413516609376
C        -0.58760499890317    0.40095788392629    7.62354215008813
H        -0.73968596592625   -0.57500630524562    7.18708550474335
C        -1.01221638479233    1.53062658260250    6.94540277506676
H        -1.49752478639342    1.42799165407321    5.98496022319754
N         3.62611782310027    8.21139750754919    3.41873747147875
C         3.34331097502195    8.00475162769116    2.13553098966495
H         3.28793852641486    6.97247343164504    1.82099819337452
C         3.13891582045061    9.03318564712131    1.23610664085994
H         2.91042718505673    8.80601294072074    0.20620534841493
C         3.23334487987910   10.35197819721036    1.66923742260237
C         3.53045885104231   10.55715800102642    3.01426175906272
H         3.62426810484543   11.55718924841708    3.40773178242947
C         3.71632699733663    9.46989293440126    3.84404106737842
H         3.95338502335262    9.60055352657827    4.89025463122310
C         3.09042049849156   11.50720295637623    0.72650549258198
H         2.59622321276732   11.18347842169198   -0.19093960869073
H         2.49704512227207   12.29649074441260    1.19057335973626
C         4.47348953247674   12.03112281266090    0.40961842675988
C         5.30806649170512   11.31467472103620   -0.43838596217380
H         4.95585540160052   10.39685584894800   -0.88680205578949
C         6.58488571064243   11.76908342629239   -0.71355840189603
H         7.22405296437405   11.20470768726957   -1.37590283310027
C         7.04256861852968   12.94333417998571   -0.13974968303653
H         8.03943718411003   13.29802198357542   -0.35371210357094
C         6.21746161767010   13.66015258018009    0.70892880155419
H         6.56811966520458   14.57697427094465    1.15897931356403
C         4.93988794527615   13.20406506963259    0.98488677258930
H         4.29984875013404   13.77137844965975    1.64591216410305

