49
CSD_code = PESKEE | q = 0 | S = 0 | Stoichiometry = C24H18N2O4Zn | MND = 6
Zn       -9.16619643850958   14.42478232050229   14.39611847097791
O       -11.16987381087157   14.58365034859976   13.97778456776304
O        -9.63346692002434   14.43289170729439   12.43702873183645
O        -8.82407340534898   12.47342810793002   14.75453444623609
O        -7.18202305490675   13.89149217459671   14.52833144957512
N        -8.71986876235043   16.49062082568951   14.45894563648903
N        -9.41914265651388   14.90739624602255   16.43740442478949
C        -8.28855110341006   17.17379754288292   13.41744787550587
H        -8.31307398513121   16.64729376036074   12.47430019001190
C        -7.83464926763997   18.48108570718482   13.52208136346086
H        -7.49070651523587   19.01298458807935   12.64960081305179
C        -7.82929561761406   19.07510400510703   14.77337165280373
H        -7.47643644922281   20.08783293639971   14.90235121045150
C        -8.27970828664199   18.35076047101283   15.86480977891186
H        -8.26681907497581   18.79485871848999   16.84689607847774
C        -8.72817146076593   17.04509528912344   15.67038514474594
C        -9.22667094100978   16.18593057892740   16.75845687650857
C        -9.49427573120938   16.65028102069431   18.04554282079202
H        -9.35880262725160   17.68826778199978   18.30281613076224
C        -9.95701511140095   15.75753217491088   18.99832707310724
H       -10.17082295370685   16.09673049768778   20.00137281740382
C       -10.14310534133864   14.43128975704685   18.64451379734333
H       -10.50139593847248   13.70745588254777   19.35880188571380
C        -9.86243977062003   14.05396692052422   17.33881799893078
H        -9.99071372062774   13.03843013722433   16.99301228351263
C       -10.84291294215973   14.47631624059172   12.77356856478710
C       -11.89361916115403   14.42113063553158   11.71961297809090
C       -13.23694760452718   14.50838581429392   12.06821656475274
H       -13.49443591141990   14.61724068216687   13.11074743950092
C       -14.20961466198081   14.45179649584626   11.08731170760956
H       -15.25395218519092   14.51842928340876   11.35676457512811
C       -13.84655763871927   14.30679463060404    9.75755023697351
H       -14.60845481896247   14.26083640590426    8.99243428172361
C       -12.50853198954600   14.21725963990600    9.40736144168887
H       -12.22930724288613   14.10082976651814    8.37002475246601
C       -11.53230755585036   14.27405609776607   10.38461154707989
H       -10.48428848844659   14.20132490118239   10.13704447012802
C        -7.59457665355134   12.71845961761864   14.67706745256977
C        -6.62187069939068   11.59616290335050   14.78890359803678
C        -7.08088638632710   10.28789300555333   14.89921731401496
H        -8.14574444121275   10.11124076409312   14.90037879040003
C        -6.17771682181057    9.24581682467428   14.99885823617138
H        -6.53302399153895    8.22867631055749   15.08213238054956
C        -4.81616056441186    9.50471853450193   14.98975617693434
H        -4.11149431345706    8.68877343446759   15.06667409789490
C        -4.35589294815334   10.80742049807163   14.87868580550006
H        -3.29349036938431   11.00512211628988   14.86860976677526
C        -5.25528360618489   11.85272506984830   14.77716857020775
H        -4.92163005893214   12.87523082641667   14.68554573185221

