57
CSD_code = PESVIS | q = 1 | S = 0 | Stoichiometry = C27H25MoNO2P(1+) | MND = 9
Mo        2.39843227775360    1.90699406557541    1.96844376063433
P         1.58734480729976    2.36613928151247    4.21520234806057
O         5.27034028080541    2.99340051411858    1.78563636123420
O         4.45504314121446    0.43439622059984    3.73690262286453
N         1.79646708437378    4.10442677384085    1.59290893404703
C         4.18295912346861    2.64391383676254    1.87845350686676
C         3.64575468080599    0.93906565241696    3.10212397496358
C         1.03110192301546    1.99462093423483    0.10907966125780
C         2.20237011513668    1.30777584255651   -0.27482190650152
C         2.29103133766519    0.13261791800974    0.50394439563146
C         1.14761225492287    0.08337433581983    1.35623583592972
C         0.37642861319938    1.23908515281734    1.11780057744822
C         0.62278733501096    3.34814064133101   -0.39346102201531
C         1.63788522227145    4.35664278458247    0.15060725187408
C         0.51091562670062    1.02404074169954    4.79181582824715
C        -0.75588853073464    1.23746996895862    5.32655185344840
C        -1.51420850865604    0.16095426278411    5.75573642186502
C        -1.01476822639407   -1.12713668167000    5.66634274835231
C         0.25598644077358   -1.34239409484694    5.15397631467232
C         1.01551711920884   -0.27409424455279    4.71609078602446
C         2.81446543496596    2.51446513376697    5.54425399504724
C         2.64097069064889    1.91526623071420    6.78753720347252
C         3.60982305771161    2.06955494155831    7.76439021453824
C         4.74300395640278    2.82429772179704    7.51144017617927
C         4.91242715596753    3.43486718484211    6.27747417659162
C         3.95345087222713    3.27953420835764    5.29518603621052
C         0.57110908560052    3.86390437831541    4.43854864666657
C         0.92069148435851    4.88065111155170    5.32064373231327
C         0.12690386934099    6.01187961691344    5.42225959013538
C        -1.01232104259512    6.14209837565286    4.64551187953999
C        -1.36773000594285    5.13349335473782    3.76188990256541
C        -0.57784790541674    4.00353882251693    3.65383023805172
H         2.84409759896229    1.56414686748459   -1.10605468422287
H         2.98587686819687   -0.68185230040804    0.34109114482282
H         0.83777353619174   -0.77499382431322    1.93721176067672
H        -0.63595302366601    1.39713158926317    1.46501531684633
H         0.61740508333087    3.37525158756345   -1.48519003033032
H        -0.38219015715425    3.59795517879658   -0.03981313816878
H         1.31137557959826    5.38776937157335   -0.03556001645683
H         2.60741795404863    4.20654579924511   -0.33472929973508
H        -1.15043685331337    2.23873785501101    5.41926927369851
H        -2.49692235049613    0.33314726466928    6.16750663180619
H        -1.60963151686741   -1.96202724881062    6.00246844479112
H         0.65515507388120   -2.34381276474232    5.09875651005009
H         2.01361524202409   -0.44061035884607    4.33000811581049
H         1.75733257257841    1.32640072646681    6.98854072759560
H         3.47823434466280    1.59609448003319    8.72519078504148
H         5.49686436675163    2.93769044261903    8.27477394084558
H         5.79365855491827    4.02616104820341    6.08122946340981
H         4.07969723899503    3.75076051783474    4.32364315443328
H         1.80388494591813    4.78321151038964    5.93477329850283
H         0.39841921992669    6.79204320048276    6.11639085487167
H        -1.62832271100988    7.02334341895340    4.73144187167670
H        -2.26197105711551    5.22700433336818    3.16396734338375
H        -0.87097914219082    3.19766160124681    2.99019050223953
H         0.91004076561145    4.32880649355957    2.05863106340808
H         2.48219909510309    4.76294822307304    1.96601091878867

