28
CSD_code = PESXEQ | q = 0 | S = 0 | Stoichiometry = C9H11BrNO4ReS | MND = 6
Re        6.61805203147045    5.18180305997156   11.74215898601697
Br        8.89444506854812    5.47888185104311   10.70650885102549
S         8.06685250830163    4.97125750930586   13.85262233875309
N         6.84514985549586    7.29004422048469   12.36997953680846
C         5.67522782150885    5.60013363991524   10.09227232022142
O         5.16578811680359    5.89065003456348    9.10605477624299
C         4.98658822239153    5.00435476856826   12.76456403303301
O         4.03304822534445    4.89617312635127   13.39605876497724
C         6.68176181309934    3.28691273338022   11.29165677716385
O         6.81600311015413    2.18107297298943   11.04382844458308
C         7.03193021157981    5.03418763340854   15.34548405265755
C         8.69141834608190    6.68665417600531   13.86328482193342
C         7.74507589551540    7.62559017637146   13.20638899792769
C         6.90213632637759    9.61190182146902   12.68007450828568
C         6.17030971413879    8.49266209473856   11.90050885710088
C         4.67269890732420    8.43503951904993   12.17540414864483
O         7.86017847326982    8.92402289624907   13.48965094747661
H         7.67577379607243    5.15903482150153   16.21218146058657
H         6.50920115160879    4.08458792334995   15.40768828035420
H         6.31280386735126    5.84532987683321   15.27670822265864
H         8.90596976197876    6.99138865802303   14.88726950172169
H         9.62309304194356    6.66905446588031   13.28805021101767
H         6.23295879461505   10.17001984572136   13.34020389782357
H         7.43793631406805   10.30804366719747   12.03198601316109
H         6.33603324807129    8.57387598167060   10.82016568833924
H         4.23941605725956    7.57423195566232   11.66945161255381
H         4.19754844525632    9.33831232286840   11.80327509236604
H         4.47910087436955    8.34657824742655   13.24291885656485

