134
CSD_code = PESZOC | q = 0 | S = 0 | Stoichiometry = C43H79LaO11 | MND = 9
La       -3.51040868909431    4.14452645596889   13.23381651965927
C        -0.72988827232208    6.54743891827508   12.02618026597375
O        -1.00349277876439    5.65803518759405   13.08640422122616
C        -0.83754151750588    6.25744595698446   14.35550720855544
C        -0.70331314945526    5.14850626688947   15.39084706798039
O        -1.93453795943996    4.47058082255280   15.50650206402123
C        -1.85595701147609    3.39573068290787   16.42053732834598
C        -3.19461985249237    2.66849244554406   16.46442028335250
O        -3.38978518312449    2.08234479330647   15.19101946320186
C        -4.39278368269089    1.08926842252708   15.15524248823179
C        -5.80982086103555    1.65018853603221   15.05324474660222
O        -6.32652004794314    1.89937528368862   16.34540476705547
C        -7.63439006508311    2.42092491342837   16.29657534027822
C        -8.22832518871765    2.38698094641011   17.71003952134879
O        -9.62072760963774    2.58686881511413   17.73291802347352
C       -10.02910784213013    3.90826962211573   17.47620965618153
C         0.18766600896494    1.77994803364534   11.93291827200148
C         0.76434456685987    1.42938265185081   13.31000839523084
C         0.76440663804953    3.12098354622548   11.46408804918115
C         0.57200290465604    0.68694910533868   10.93791134516045
C        -1.33255934449952    1.99810967809974   12.12226413162930
O        -1.64662179436320    2.84791615603153   12.99589794241044
C        -2.24140485317917    1.25863447453207   11.35589142351865
C        -3.62796851136346    1.38669815119299   11.49189541280238
O        -4.19614602199139    2.13401100412516   12.33137500190553
C        -4.57250582259743    0.50523948825939   10.63901817864786
C        -3.90565830155126   -0.19198642827498    9.45375493458853
C        -5.71340435166458    1.39276574850708   10.12877957031308
C        -5.14600762057323   -0.55404248200974   11.59110593915473
C        -3.47493416983709    5.13563466343008    8.71231478261460
C        -2.67147085761339    6.21713196729731    7.98065381986502
C        -2.77793037600567    3.78671639661467    8.52242324823729
C        -4.89519802828037    5.06303461434753    8.14296314692946
C        -3.55529668775755    5.45102026677995   10.22340812471883
O        -3.14644730652421    4.57190990882848   11.02228677570850
C        -4.03062126924903    6.71499901730690   10.59868789674618
C        -4.03953509425387    7.16323610937135   11.92391860753851
O        -3.70815465361805    6.46635985184756   12.91791207680541
C        -4.47109550719828    8.62477054601908   12.19778107317816
C        -4.01264245389375    9.59882398697290   11.10823471885454
C        -6.00076668147129    8.62593618017670   12.29298289641790
C        -3.87984192859035    9.07196487216625   13.53726094024365
C        -8.06434272671490    5.00479496113349   12.39634219725529
C        -7.65389901589573    5.20602500925484   10.93442666010530
C        -9.11338999824227    6.04800910867528   12.77779237892122
C        -8.65764393616185    3.59853599074307   12.56724101580935
C        -6.77926307029046    5.02547337188273   13.25347550410865
O        -5.81596033095594    4.35469221591251   12.80152187492306
C        -6.75622827511587    5.71254513880193   14.47527223251579
C        -5.63682646780088    5.68897230967781   15.31814457344132
O        -4.62812685515535    4.96202411935867   15.13011861288335
C        -5.66521099195394    6.53047455819111   16.61718226430514
C        -6.41552997824101    7.85579292337191   16.46181926713751
C        -6.35549613837929    5.67449136143714   17.68646733092766
C        -4.22638109378510    6.82025025619439   17.05474041673714
H         0.31995485562788    6.87278414241392   12.05474200317751
H        -0.92158686454001    5.99992270105690   11.10637380990498
H        -1.37844266314473    7.42839290879335   12.06067413053286
H        -1.70544296960476    6.88633945191490   14.59514688580054
H         0.07715837612827    6.87095444237958   14.36781141310949
H        -0.41691119740740    5.58141744450206   16.36367686138775
H         0.08257560081191    4.45116366239633   15.06437780915667
H        -1.60049562360471    3.77270207374516   17.42455322273153
H        -1.08094002410891    2.68581101952969   16.09558968050978
H        -4.00142890251970    3.37224250333340   16.69580911803477
H        -3.15909296179959    1.88785132713554   17.23890841685960
H        -4.32582180485164    0.44660594788776   16.04444555512641
H        -4.17868757169353    0.50583079152967   14.25798224863199
H        -6.45789410809907    0.92075969272402   14.54259862486666
H        -5.77951946778618    2.57187850456844   14.45216296060675
H        -8.26544337788485    1.79976924755063   15.64147964550140
H        -7.60977955095166    3.44243078633594   15.88810212151935
H        -7.71842589537678    3.11992484005912   18.34917425175783
H        -8.06840511003423    1.38868913533037   18.12427929954478
H       -11.10962526728776    3.92245021523177   17.60685804174006
H        -9.56924063726568    4.60784648374499   18.18486358594020
H        -9.78682576736622    4.22335698062881   16.45575528981013
H         1.85184365802614    1.38946430492299   13.27330904802114
H         0.46050296845373    2.18191754076750   14.03312818457790
H         0.39008094028271    0.46259542493165   13.64141613323955
H         1.85263017412131    3.08273366052512   11.43425594435299
H         0.39652136844828    3.35776641421995   10.46773593248486
H         0.44758378200632    3.90813288344604   12.14251400025369
H         1.65757466301686    0.60259689414731   10.89974249723239
H         0.16947706638654   -0.27762421804569   11.23810552764011
H         0.21895622116869    0.92368337651294    9.93733636752399
H        -1.85969509615908    0.57139949859456   10.62658455346003
H        -3.38602746408620    0.52311080199439    8.82069555766712
H        -3.19948379988933   -0.94975503339403    9.78446617581519
H        -4.66894783196230   -0.68582433374779    8.85369960785557
H        -5.37146501606406    2.00618202088721    9.29805082980057
H        -6.55126857247891    0.78645188121477    9.78851544034875
H        -6.04652168508194    2.05008502511533   10.92914399729839
H        -5.82615257380079   -1.21507636284337   11.05633405751850
H        -4.34577937872807   -1.15454492005041   12.02047378254606
H        -5.68987396304808   -0.06876580074524   12.39786341677450
H        -2.53700160673209    5.93247733957254    6.93828902547726
H        -3.17653292460075    7.17834175329880    8.00675904514902
H        -1.68938477862568    6.33499068395005    8.43422520856759
H        -2.81339369393189    3.48399109218181    7.47728305223240
H        -1.73790292820288    3.85160097763822    8.83456589379813
H        -3.25607579418735    3.02842741795966    9.13627631343054
H        -4.86217820289265    4.82592694366333    7.08050751399088
H        -5.46531287395402    4.29167265835373    8.65400464044801
H        -5.41610323370256    6.00838123012216    8.26895556845322
H        -4.37069566901627    7.38249327661860    9.82757737444803
H        -4.16261741031816   10.62193001651903   11.44988747243889
H        -2.95645498197001    9.46171852358489   10.88527964790769
H        -4.57816927089319    9.47178284422966   10.18942508460322
H        -6.36609354520528    9.61813838275877   12.55598235679799
H        -6.43938788273119    8.33803625391967   11.34005185632625
H        -6.32316851805734    7.91418494138887   13.05018173175274
H        -4.31608674091505   10.01829274912695   13.85204735556797
H        -4.08054929789578    8.31630830462278   14.29166174217441
H        -2.80128452061079    9.19883958672523   13.45447090077073
H        -8.49006570637225    5.00291103415131   10.26792989978643
H        -7.31631279446484    6.22715149383148   10.77420246259648
H        -6.83216862242156    4.53704233500797   10.69288437737130
H        -9.93437528765534    6.00709303352952   12.06336616829446
H        -9.52522937660676    5.85816421448752   13.76658269624569
H        -8.69437855434201    7.05103230805562   12.75512957591853
H        -9.51917874703037    3.46843686044142   11.91455494646225
H        -7.91040422362543    2.84935985450392   12.31668741681580
H        -8.97599771741837    3.43911193628828   13.59616683092893
H        -7.61108312370032    6.29536546819748   14.76433275258380
H        -6.24371479651546    8.47546600053052   17.34086655460174
H        -6.06648668637091    8.39740676320479   15.58690278254399
H        -7.48789024914220    7.70399750395189   16.36918325888831
H        -5.84533915037693    4.71942265272844   17.79540671811406
H        -6.34573028149650    6.18792430742964   18.64724153597998
H        -7.38913388383370    5.48630320875122   17.40575102499047
H        -3.64430081042635    5.90304194181736   17.05792950065698
H        -3.75476776015045    7.51602009177659   16.36443977504991
H        -4.21357277456256    7.25755375222286   18.05182390851194

