37
CSD_code = PETBIB | q = 0 | S = 0 | Stoichiometry = C11H17NNiO7 | MND = 6
Ni        0.23348772874457    6.33393444520730    1.57060370185391
N         0.38862502688582    3.93615736575908    1.82083326965774
O        -0.32677395751525    6.60840636214640   -0.39501149039271
H        -0.19625782058110    5.79086079461317   -0.88644990434332
H        -1.27913793700075    6.75823875549132   -0.33019125223214
O         2.11643594941234    7.06215781939522    1.18580454007608
H         2.52815112617380    7.10394803498498    2.05892084901212
H         1.90661531692954    7.97246373018973    0.93618046677341
O        -0.27316839902642    8.64136839483805    2.16396782134569
H        -0.06238024340010    8.47563404685482    3.09274839318150
H        -1.23122864618431    8.55149376353900    2.10535696735829
O         0.68028849132652    6.23248892151164    3.36771594431430
O        -1.53548472346718    5.92334163542276    1.94355671066141
O         1.12672215737758    5.05219504142522    5.16784959416649
O        -3.11418755808984    4.53827091808580    2.59106666321934
C         0.93547464950818    5.12890222311783    3.97366182335840
C         1.13031139240951    3.87824715409646    3.08238658824045
H         2.20206310607143    3.86182550826611    2.86354388162659
H         0.88744450057134    2.98915914533352    3.67737914596436
C        -1.97229226778296    4.75541815548666    2.24617959299921
C        -1.01221546618012    3.55543836447783    2.02728344565347
H        -1.14058219547748    2.86496687071037    2.86815480704618
H        -1.40007773997519    3.06213542020546    1.13240036404349
C         1.04314165768529    3.11494425595467    0.78135001677842
H         2.02382929373261    3.56028098332735    0.58740726259521
H         0.44504980250186    3.19608672411972   -0.13177863520358
C         1.21052673400451    1.65857731214413    1.14670342835399
C         0.20482355428199    0.73505511538512    0.88606929260826
H        -0.69600705221011    1.04421592049655    0.37557240512924
C         0.34473159618054   -0.58892780842500    1.26311432215132
H        -0.44888225220765   -1.29130979294522    1.05555873279487
C         1.49745924485198   -1.01209364692172    1.90125378461797
H         1.60612408687573   -2.04457258570153    2.19763338828414
C         2.51441928518755   -0.10615282401707    2.14804140952159
H         3.42256624814300   -0.43007033588013    2.63442077783569
C         2.37160240294935    1.21716540984625    1.77143989542468
H         3.17848290729401    1.91114840146009    1.95887199552286

