103
CSD_code = PETFOL | q = 0 | S = 0 | Stoichiometry = C48H52N2Zr | MND = 12
C        14.07020194256126   14.63376622786989    6.10220320546246
H        14.63748208488098   14.75700647311682    7.04277433763959
C        14.54444099067663   13.44789949410584    5.25971723753229
H        13.88968073917637   13.40028445674000    4.37406312733216
C        14.48451036294635   12.12023470181265    5.98439464806101
C        13.96253856249644   11.97760049155027    7.26281507372423
H        13.58540662001461   12.83832490926191    7.79670489830693
C        13.91304897060614   10.73219651794508    7.86768330089311
H        13.50171051751809   10.63820547553175    8.86246151788740
C        14.38331605429437    9.61444628243901    7.20304821391591
H        14.34076192658085    8.64414534987981    7.67543950298269
C        14.90731630746196    9.74746161877929    5.92774552345448
H        15.27214346939107    8.88021736284261    5.39783696219974
C        14.95836027950230   10.98963884259587    5.32576236821314
H        15.36493743589239   11.08917302418945    4.33009389347197
C        15.95611778750429   13.71189021379382    4.80289814298672
C        16.99806216085937   13.77833322787103    5.72263214530452
H        16.79812177006954   13.61981657533998    6.77260335718852
C        18.29008556670743   14.03133833235942    5.29949968771237
H        19.09088846002880   14.08301009745306    6.02285731815779
C        18.56157864125674   14.21021667405918    3.95286527645602
H        19.57228440070299   14.40268163678890    3.62466813080487
C        17.53250366103755   14.13075538272954    3.03001847612956
H        17.73335124440070   14.25438811401509    1.97551478418558
C        16.23800622641009   13.88629323972111    3.45375366758483
H        15.43958732638997   13.81593551195153    2.72999618354177
C        12.80315547366073   13.62067877442214    2.12305856127592
C        13.37754729141171   12.59558403849115    1.47622631481893
C        13.13397908554740   11.23568364823087    1.92121272362624
C        12.56497853970882   10.99178625876453    3.17743749308066
H        12.32300825808210   11.83143936986649    3.81570439224013
C        12.31964584495921    9.70717816967214    3.61366240513440
H        11.89003465129958    9.54908891083474    4.59333414933120
C        12.63507978349707    8.62403705368509    2.80905485140546
H        12.45184939550893    7.61666109521067    3.15254622669680
C        13.18007192536154    8.84893375852426    1.55464831717331
H        13.41378582762777    8.01145283891519    0.91182762290543
C        13.42119929202480   10.13296310836028    1.10984960572128
H        13.82189116803109   10.28902785662978    0.11878249795669
C        14.26471376997908   12.92726712048809    0.35811378415576
C        15.48928717478447   12.27784607455540    0.18771893872419
H        15.78278847214277   11.50498280090134    0.88369890141610
C        16.33461981201258   12.63183328948879   -0.84500086738874
H        17.27867271126102   12.11815594408695   -0.96172184450901
C        15.98771783672808   13.64748826953595   -1.72206109764581
H        16.65309401820532   13.92252941941411   -2.52720994504593
C        14.78159279843670   14.30801811944851   -1.55682413817800
H        14.50187737150127   15.10117050490304   -2.23605047766105
C        13.92828107749575   13.95118693176540   -0.53095190519069
H        12.97754624458072   14.45584320968104   -0.41711184751466
C         9.84979128570521   14.50343574878976    4.01864839566566
C         9.45289920975157   15.86806311128860    3.94932656074948
C         9.72675449142646   16.47393724164151    5.21199982038889
C        10.31441486820677   15.48016067903958    6.04478108565885
C        10.38600204482204   14.26223333419278    5.31082883117550
C         9.52808707152253   13.48060842867211    2.96218536971495
H         8.47973365441800   13.17948698686156    3.04341004645217
H        10.14151534468147   12.58735848535218    3.06286536944200
H         9.68300474856801   13.88428846004651    1.96123965247074
C         8.62926177074573   16.42003899523571    2.81479860879178
H         9.21078654271513   16.52644875107512    1.89553024895334
H         8.19639594756654   17.38514650714621    3.07087044914048
H         7.80277737841956   15.73967156287271    2.60051760529416
C         9.13942601504449   17.74877113673825    5.76000987638686
H         8.36989205805978   17.49846392654599    6.49498263250911
H         8.66657610766499   18.34193078525340    4.98209111355703
H         9.88374354589559   18.36242585972902    6.26725113781803
C        10.59314884618618   15.62557220048158    7.51581678616715
H        10.79571213005512   16.66352726009298    7.77657461414266
H        11.45064375427660   15.02150776287917    7.80985191819549
H         9.72831925429793   15.29550518609767    8.09841732855865
C        10.74344946361697   12.92915898488867    5.90901305776808
H        10.21120716871088   12.79457345601900    6.85227197924056
H        11.81180309497714   12.84221982633300    6.11707496073301
H        10.45226118572643   12.11763792673905    5.24571630938018
C        13.92752190763563   17.50448221259422    4.09448569316778
C        13.69553426882250   17.09739519043488    2.75587192679894
C        12.40692802285439   17.55949645144231    2.37448606422142
C        11.84347924963797   18.28073210121403    3.46796336030943
C        12.78359182769718   18.22621062054005    4.54114033778966
C        15.23439714106034   17.41732412365071    4.83403805993935
H        15.78031036689125   16.50989096627300    4.57739865134528
H        15.07308979021864   17.42555653541694    5.91040126902488
H        15.86440746621889   18.27329288993058    4.57728153210321
C        14.72070963005633   16.54765720172188    1.80561954012257
H        14.99512867617900   17.31635314652370    1.07838283075817
H        14.34864819198763   15.68942072563291    1.24602784572531
H        15.62292454244092   16.25362080835584    2.33573945570819
C        11.85082919419104   17.45831676000446    0.97912959718961
H        12.57145937000340   17.85351660433065    0.26026068269830
H        10.93064355733932   18.03127171996459    0.87978311704611
H        11.65125102796362   16.41841767426782    0.70259143092387
C        10.73600879892355   19.29228686761328    3.31388860616544
H        11.08259237605326   20.09707697979194    2.65921229569388
H        10.47075540320961   19.74293490686696    4.26637181968456
H         9.83950138621957   18.87106804641664    2.86417021678921
C        12.71229686974378   18.92738193727720    5.87274745416323
H        11.81646476328696   19.54020428497031    5.95470630032795
H        13.57341697338349   19.58736854387756    5.99329675770753
H        12.72644729576279   18.20517719750847    6.69523857137368
N        13.16805522008377   15.42714116430473    5.78958254660482
N        12.31645664216633   14.54563499208338    2.68761149020032
Zr       11.96648172369575   15.90269994236935    4.22310314441560

