105
CSD_code = PETGEC | q = 0 | S = 0 | Stoichiometry = C42H59NSi2Zr | MND = 13
C         2.00914833363868    1.91852004626516    4.46548042254010
C         2.67772659124798    2.67687061330477    3.63329100173468
C         1.09402003637705    2.18326551193575    7.39544471514250
H         1.78017444711779    1.39509031021390    7.68644909869030
H         0.25159036640359    2.15963832025319    8.08085949107681
H         1.60090286249927    3.13278108548858    7.53901798174280
C        -0.82422702520028    3.31300820591393    5.27645755986172
H        -0.39968983884384    4.31041928206672    5.26102325913871
H        -1.58463568992141    3.29092880425423    6.05287620496397
H        -1.32813707002996    3.15735199019933    4.32702743505853
C        -0.44890968265763    0.31039901483802    5.44357548072940
H        -1.22992885132013    0.36801664084766    4.69137247162349
H        -0.93129992351900    0.05499359800569    6.38279176124125
H         0.21568710210270   -0.50302935827070    5.17088954864991
C         2.22927378643802    5.59341376511690    4.70540803569942
H         1.86503501263425    5.02773745550069    5.55677625299319
H         1.53781061760762    6.41337879387950    4.53537938637845
H         3.18435326156381    6.02683151800361    4.98477488495277
C         0.77135979177593    4.71581879963186    2.13181488831225
H         0.86799469683393    4.35861895528505    1.11091632649655
H         0.50749151096103    5.76817640050517    2.07786705045488
H        -0.06251882066209    4.19244440606900    2.58634446405745
C         3.77720742416862    5.26278025478227    2.08432688441863
H         4.72481183935697    5.31329798015734    2.61085894074750
H         3.50129213578941    6.28185791861827    1.82805258943315
H         3.94218055568011    4.73361306385225    1.15179133234684
C         2.61791468366269   -1.65386358220359    5.61470932032024
C         1.95836833802858   -2.55698601107890    6.54468433927781
H         0.87565666426660   -2.43343945500824    6.39521723572150
C         2.30623537368648   -2.08746839139690    7.94530351607268
C         1.47639060909981   -1.19113124952249    8.60718217237805
H         0.56856459985602   -0.85089116273902    8.13192858050647
C         1.81224389607584   -0.72962089663687    9.86642777796889
H         1.16125231566872   -0.03217882213811   10.37190159224338
C         2.98012724123255   -1.15774250512624   10.47704599475964
H         3.24240849204110   -0.79507110651185   11.45935087510586
C         3.80771769708933   -2.05531784584944    9.82333682106031
H         4.71726224881317   -2.39609612220083   10.29522685461108
C         3.47520623606330   -2.51907300774776    8.56381550259513
H         4.12089807103579   -3.22596617683536    8.06254026193509
C         2.30527136382080   -4.01751202880800    6.33971870062259
C         1.58306746932363   -4.98233090158128    7.03073730268292
H         0.78602119636069   -4.67822763917755    7.69456615714575
C         1.88358389290333   -6.32287796146310    6.87597148276567
H         1.31665606442762   -7.06606117648602    7.41684012824546
C         2.90805155905802   -6.71300205783008    6.02867465775055
H         3.14076207434737   -7.76034772100992    5.90713577288799
C         3.63201527624292   -5.75595280627577    5.33995357543519
H         4.43300159852696   -6.05275248984481    4.67888868220912
C         3.33294382612416   -4.41365175950760    5.49716467126406
H         3.89833686903447   -3.66396562980442    4.96168976753970
C         5.11703721934919    0.93813618060875    5.80320920357209
C         5.69654483633653   -0.15610834778321    5.10945261043992
C         6.22493962619381    0.32283497915148    3.87973658075324
C         5.94808609840023    1.72106830971458    3.80738151510229
C         5.27872890753699    2.09684213689964    5.00763071434522
C         4.64754717505122    0.91148134908690    7.22981911387689
H         5.50423036253769    0.86621442311920    7.90809173665269
H         4.02295032136531    0.04226331363356    7.43611661531495
H         4.08159520025670    1.80959590684639    7.46406850017134
C         5.97914074845910   -1.49810584645567    5.72438713244916
H         6.29758293144931   -2.22305414855295    4.97645581060739
H         5.10441533864859   -1.88816975428061    6.24762535548707
H         6.78282659887696   -1.40989064142637    6.46070354247615
C         7.27166548505206   -0.42706299320642    3.09513837745900
H         8.13568056591612   -0.60991401826389    3.74037372853520
H         7.62032608326070    0.14674486137812    2.24073923576383
H         6.92110156048949   -1.39483019350952    2.74054427094369
C         6.44450929991989    2.69795632645492    2.77061762039092
H         5.62716203791627    3.08062063228938    2.15179596903590
H         7.19012054324538    2.23805554906125    2.12344911421159
H         6.92247575538103    3.54886258207319    3.25905395734904
C         5.01413462884634    3.49989935889438    5.47875069703460
H         4.03337288520155    3.58211255216697    5.94570440550415
H         5.05850539035066    4.20420417800445    4.65319277954186
H         5.76699149753755    3.79023311167824    6.21702834805511
C         2.36136432617789   -1.10717208798131    2.30559276169028
C         3.74006048180230   -1.28890006785745    2.00406914609605
C         4.20162166946196   -0.12308359284356    1.33064639250864
C         3.10341906828569    0.78379611394949    1.23833348214491
C         1.96860566200466    0.16733296555813    1.83055942929567
C         1.42701587542425   -2.19282062329159    2.76804003286479
H         0.56055340544680   -1.77657722722396    3.27921152907119
H         1.91862448902620   -2.89594094916240    3.43967420535484
H         1.05990267869814   -2.75751595087418    1.90614891169149
C         4.47953920483069   -2.59065560776378    2.17423987798622
H         4.91269919569650   -2.69598510078073    3.17307297063594
H         5.28332579184322   -2.67851980310072    1.44370109873411
H         3.80006954257591   -3.42839391994492    2.01558162056948
C         5.41670708750164   -0.00153348347323    0.44649678133155
H         5.09562315530525   -0.00595158255261   -0.59924455821199
H         6.09983449361220   -0.83556752405840    0.58162570288989
H         5.96252188699786    0.92661032682470    0.61279312770487
C         3.07891445659090    1.99503113385182    0.34806102715328
H         2.83227027065950    1.69975057192075   -0.67662800358523
H         4.04976391391382    2.48916365635533    0.32280118039257
H         2.32909724530438    2.70863416594490    0.67959928139557
C         0.56924189705392    0.71287675648162    1.78776904926140
H        -0.05960783103551    0.23046834981323    2.53197904623806
H         0.12492186545480    0.53747878614681    0.80438784163655
H         0.56217179796257    1.78501067871239    1.97935987620900
N         2.89323869224609   -0.68752847231659    5.00885056638065
Si        0.51643100933198    1.96785181208348    5.57886397361542
Si        2.38512902797442    4.47406107211082    3.14930065571156
Zr        3.71249741556243    0.68349492586989    3.63956684660510

