124
CSD_code = PETJAC | q = 0 | S = 0 | Stoichiometry = C53H63N3O2Si2Zn | MND = 4
Zn        0.30054618764318    6.43999375829300   10.11464873287690
Si        2.75734437716978    6.67182703090425   11.90672003182442
Si        2.28884777565013    8.70525099023212    9.66125452330406
O        -0.95011520123060    5.93666605072068   11.37112863496171
O        -2.68369060536083    6.04536064223596    7.51083362811884
N         0.21242545470918    4.57731549189893    8.89105514138937
N        -1.10950641064307    7.08363239401280    8.70031528272305
N         1.98200012010867    7.19996855163254   10.45015435822739
C        -2.04200719909415    5.32554858972152   10.99482769855348
C        -3.29540728514303    5.61867330375994   11.58488136077005
C        -4.44796157930673    5.12504267832997   10.99947784379266
H        -5.40888079617323    5.41168134843990   11.40397128946861
C        -4.41710357147901    4.24244538812566    9.92510502212066
C        -3.18036746011389    3.79000047512774    9.49359673071928
H        -3.13182488052345    3.01935587451931    8.73466262237480
C        -2.00511861410712    4.30820821179885   10.01362602668970
C        -0.67497340410428    3.69879879817421    9.67314596240564
H        -0.15397257972437    3.47160281018897   10.60851476495448
H        -0.83666565268386    2.75771168543832    9.12288138524444
C        -0.49724155112311    4.97636655042832    7.68087374368968
H        -1.03535986451460    4.13638927788918    7.21849055208200
H         0.22297941066195    5.37903069723998    6.96357203038219
C        -1.45566458954592    6.06479499268322    8.01466151420515
C        -3.37825775393756    7.16170733757110    8.08954740833514
H        -4.00422293331932    6.76210122311622    8.89878222396102
C        -2.21638317525769    8.02048889309795    8.69167909749073
H        -2.44959766379249    8.34155254198753    9.70744197973540
C        -1.90354219759657    9.21570482248834    7.82116986524390
C        -2.42713145876728   10.45967415320738    8.14404276908925
H        -3.00857074681456   10.57054542398601    9.04599611092310
C        -2.20815297402254   11.54721699523753    7.31869848396278
H        -2.62183148747701   12.50990546288674    7.57989466873132
C        -1.46200087616201   11.40409394544757    6.16168702881227
H        -1.28937422147374   12.25400168196421    5.51829263437343
C        -0.93949881095951   10.16610955921528    5.83289992992237
H        -0.35696759720464   10.04547433119081    4.93154076530752
C        -1.16512128602517    9.07671868013656    6.65427126226149
H        -0.76023214510398    8.11258775753183    6.38449919781465
C        -4.22192038930729    7.90825400220346    7.10101298330913
C        -5.20599858589311    8.76266911741339    7.58375047057851
H        -5.36840855429528    8.83366869589175    8.64929717333324
C        -5.96201060615517    9.51731798644990    6.70694349810556
H        -6.72258343282500   10.18184784827259    7.08837423369175
C        -5.74590617155099    9.42080198714995    5.34202960071927
H        -6.33714090447224   10.01050392954325    4.65767290796602
C        -4.77381854857871    8.56350540844688    4.85841158514707
H        -4.60501196431318    8.48166520826752    3.79506227349157
C        -4.01032324260803    7.81162306776034    5.73409874559569
H        -3.25325951635356    7.14056725140654    5.35832656562429
C         1.45003905685202    3.85611109396299    8.57190427880687
H         1.79412168949726    3.39055699063728    9.49773128283388
H         1.23359519858221    3.05753353504294    7.84645702206461
C         2.55906094814260    4.77300323552790    8.06510869338565
H         2.57077986449015    5.66356618276326    8.69713396238963
H         2.36747040143521    5.07959084883516    7.03453864154765
C         3.93584477965980    4.11102420167310    8.13028480388100
H         4.68493512381223    4.85636409192895    7.85677214819443
H         4.13901010842896    3.80478675222374    9.15785642662462
C         4.07336089964906    2.90958198623369    7.20059846476642
H         3.84050917522305    3.19104918415145    6.17558825976339
H         3.40617810463880    2.10437072929401    7.49746973884026
H         5.09142403573379    2.52847396286814    7.22496983102068
C        -5.68369713362150    3.76668771384702    9.27714786325894
H        -6.53130276911838    3.88798785253690    9.94771496119245
H        -5.60516628183092    2.71776025529237    8.99768601903161
H        -5.88211143211896    4.34069117348541    8.36997446149237
C        -3.35440495739921    6.49082069793073   12.83343648364402
C        -4.53418621097863    6.15463923910830   13.74131284258653
C        -4.95278180542710    4.83846558409940   13.90731986572707
H        -4.48553287573881    4.05071871945931   13.33623096088922
C        -5.96423601311215    4.52117367438114   14.79512390026486
H        -6.27939100311188    3.49288746308376   14.89950133884581
C        -6.56647914212752    5.51089369552145   15.55226704779023
H        -7.35789491412938    5.26362512903628   16.24443917573003
C        -6.13249587022219    6.81817658695363   15.42375712258344
H        -6.57892739760897    7.59880225866500   16.02283821287322
C        -5.12180677938945    7.13473798834842   14.53392984232859
H        -4.79082067298421    8.15991399704767   14.45914797404273
C        -2.19243642591410    6.22182521107692   13.78460826270258
C        -1.64205246325552    4.94975936387703   13.88904180787722
H        -1.99290116872454    4.15649576605454   13.24551922306754
C        -0.63602881169053    4.68403968835565   14.79871704635680
H        -0.21022370305057    3.69203824639666   14.84941529970534
C        -0.17648468237974    5.67850217788648   15.64365405527522
H         0.61632328276685    5.47401937644468   16.34806124278547
C        -0.75517671234195    6.93323599301849   15.58703464131529
H        -0.42503482307655    7.71329853476840   16.25829287585270
C        -1.76196516702015    7.19757885152726   14.67573367222024
H        -2.21336055135530    8.17890800190348   14.66398371627709
C        -3.41716945801278    7.91602902266264   12.31447795542623
C        -4.64057155339636    8.44091711766640   11.90414463624830
H        -5.52776587995678    7.82577638135826   11.94715500837799
C        -4.74469156975726    9.75112524829803   11.47422267584771
H        -5.70853869158523   10.14674873045030   11.18546086468053
C        -3.62143644359685   10.56101384626169   11.43898147606034
H        -3.70754957465164   11.59976209809988   11.15261016993382
C        -2.38736754331894   10.02561375228469   11.76922778305523
H        -1.50087205023202   10.63836057743538   11.70743634490310
C        -2.28028923327394    8.70741673927128   12.18280360388260
H        -1.30847676706677    8.29468782813302   12.40884661916420
C         2.14575947791061    4.91561858673923   12.33264413559593
H         1.06207392589172    4.89495928464938   12.35790258399227
H         2.49884883971216    4.60970228886946   13.31206971527577
H         2.49215579784702    4.17790440606040   11.61564464030586
C         2.36570616088117    7.80291867795068   13.39681708713342
H         2.57847113451219    8.84180917383560   13.16614342580981
H         2.94826211999107    7.53023383498020   14.27121407065515
H         1.31579925216631    7.72864183715630   13.66392603019030
C         4.65070205442467    6.54127695070009   11.67072414256699
H         4.91030505783510    6.25750939418341   10.65693400740024
H         5.06996472790657    5.79899124773181   12.34212869028345
H         5.13821277258936    7.48405842848755   11.88429836408501
C         0.94453021879116    9.99974065090671   10.07825449359641
H         1.02005751985884   10.88363503248080    9.45220395665362
H         1.01550655936156   10.31765439876427   11.11365148732311
H        -0.04197716978671    9.57275670678998    9.92680576819290
C         3.98054466192122    9.47379153453878   10.07570184950471
H         4.79842474513340    8.83616629283939    9.76383043862962
H         4.08367933599883    9.64864326081419   11.13970216354442
H         4.09312538743828   10.42736455117493    9.57036113284448
C         2.24416162042871    8.41523221422312    7.76944315076647
H         3.12189542384280    7.88351708380385    7.41762336546547
H         2.19263396949004    9.35813058165671    7.23515067732155
H         1.36821743267592    7.83662329980281    7.49833167098686

