108
CSD_code = PETJOQ | q = 0 | S = 0 | Stoichiometry = C45H55N3O2Si2Zn | MND = 4
Zn        3.87585460735395    2.74958395589404    3.90685568274688
Si        3.38944796163281    3.52445753830275    0.83228704991665
Si        2.72170171792529    5.37115304750797    3.13415451387628
O         3.41493396819687    2.83153415138675    5.68384688133308
O         4.83403160266284   -1.20344324250844    3.86460245429930
N         5.94962724742770    2.20190520012479    4.45165749502458
N         3.77383617755595    0.71234491970221    3.52056893418488
N         3.48990954822897    3.94612308707361    2.50129054649559
C         4.09533434635317    2.67279984320341    6.79080810847311
C         3.41567606986088    2.40261795344503    8.01040399802997
C         4.13167191091458    2.20010360936823    9.17183506390634
H         3.61044445389276    1.96007766158829   10.08673879242318
C         5.51987884075582    2.28406873884677    9.21364793269061
C         6.18544269049596    2.56013496863355    8.03556817147730
H         7.26587997682159    2.63010087216001    8.03775675893873
C         5.50391200746934    2.75135340531110    6.84024809028117
C         6.29634229744773    3.06203434497346    5.60115349190113
H         7.36871827406945    2.96031782026827    5.82783831594639
H         6.10176568935367    4.09362005430038    5.29486012195788
C         5.83929344057505    0.80119691008169    4.85191438166065
H         5.53342319357373    0.77307971988229    5.90830263078691
H         6.78924402469629    0.25476828012607    4.75988946440306
C         4.78913250807994    0.11840494271698    4.06354418851150
C         3.72855491525007   -1.48577834129682    3.11278847190749
C         3.27607342899317   -2.69030599564271    2.60789297986943
H         3.80133857198260   -3.61304639022105    2.79106734215221
C         2.11598375576998   -2.63815659158847    1.85615565423298
H         1.72092316505326   -3.55173622755225    1.43913951336854
C         1.44302499998249   -1.43803936476786    1.61942411177232
H         0.54467776667504   -1.45598056885859    1.02144889189309
C         1.89405708215282   -0.23625972976537    2.12733288120608
H         1.38923109346366    0.69835346492144    1.95126857040381
C         3.05339628051980   -0.27421779528173    2.88807993058374
C         6.94813889954162    2.34044290504598    3.38900055348469
H         6.67427787182379    1.64876592505830    2.58732800346775
H         7.93979909332184    2.04097453019616    3.76992305946029
C         7.02681099832954    3.75073213742632    2.81301293417427
H         6.01327649126071    4.10701222534240    2.61423278836090
H         7.49832375673094    4.42070802122084    3.53380920745353
C         7.83859596819493    3.77391870818772    1.51836024779793
H         8.79222058961227    3.26150962035470    1.67434715107909
H         7.29147599115389    3.23798470456891    0.74135861315199
C         8.10661561254756    5.20051583168311    1.05657131925304
H         8.64891978157315    5.20264175625210    0.11426988647235
H         8.69894186509741    5.73782750815890    1.79427869343959
H         7.17010600948481    5.73365361975518    0.91618912388356
C         6.25826013320702    2.04786769414169   10.49815881070636
H         5.73721420567719    2.51513513791084   11.33151184284169
H         7.26702548542803    2.45101841652336   10.44443947835268
H         6.32885395179995    0.97906574972381   10.70657750824868
C         1.89714208733805    2.25970599058247    7.94922503924812
C         1.21317860649363    3.57508592105669    7.59924896133204
C         1.90892534350425    4.76688036673724    7.46187861117484
H         2.98405575353785    4.77758278529781    7.54781057343333
C         1.23735889550497    5.95551749268474    7.23118355393451
H         1.79928371189746    6.87198396592096    7.12542167630095
C        -0.14219043243689    5.97517219709529    7.14377848707527
H        -0.66552725391645    6.90330486157413    6.96379617511166
C        -0.84964240160106    4.79608359615072    7.30685709138447
H        -1.92946625849566    4.80055411995305    7.26112855577387
C        -0.17858283547417    3.61158543880979    7.54400632771965
H        -0.74334425043545    2.70442881250542    7.70978445624991
C         1.30205852658721    1.90277635142523    9.31035784318832
C         1.37761974471585    2.85133222764666   10.32991015865191
H         1.87155716310266    3.79313510234465   10.13890767712814
C         0.83143780907510    2.60602315092496   11.57437361015416
H         0.90810893127718    3.35390245214208   12.35049282039154
C         0.18194527729002    1.40826585619952   11.82548148692439
H        -0.24862605174882    1.21429133885662   12.79698253613789
C         0.08272973099656    0.46896756167464   10.81666348319435
H        -0.43205710619302   -0.46441648440303   10.99493502554019
C         0.63579146982927    0.71384195624722    9.56940863684716
H         0.53454489818696   -0.03448360782726    8.79788953901273
C         1.64702624746215    1.14780555483143    6.93897070756693
C         0.77188633592847    1.24285155665821    5.86656946648858
H         0.25390071968565    2.16686228583838    5.66731638649033
C         0.54953637775486    0.15557496640481    5.03860269884561
H        -0.15407558187460    0.24218596053939    4.22320349200578
C         1.20977751958713   -1.04104915734488    5.25128473622982
H         1.01907513688280   -1.89283679017562    4.61362111780783
C         2.12679572138450   -1.13140641349649    6.28445415949430
H         2.66818598443591   -2.05312552048920    6.45061919636085
C         2.34022353095965   -0.04890881642471    7.11689232137474
H         3.04721618287134   -0.13443158153630    7.93095220433481
C         4.24974959187375    4.82978166819395   -0.27410952639074
H         3.54296703571912    5.57447008862447   -0.61993792596496
H         4.69664117632533    4.37500461109644   -1.15254455584382
H         5.03364845549714    5.35191764211847    0.26202973012480
C         4.28004900576773    1.87014174210002    0.46845556887853
H         5.12927269969162    1.71834937702665    1.12419492304355
H         4.64709690063539    1.85204406862201   -0.55297538254181
H         3.61555709928216    1.02179442959321    0.58705142345511
C         1.58467673848743    3.32880725326919    0.21961267200857
H         0.97244143475547    2.80728765686448    0.94848034899435
H         1.53160713378046    2.78000259865168   -0.71572681696117
H         1.12826348051700    4.29911269933255    0.05718753142489
C         3.86425287703096    6.09949176613716    4.48231118794565
H         3.97276738613921    5.39453798369823    5.29841021335876
H         3.45051416498928    7.01456677913935    4.89246425738631
H         4.85265501700395    6.33001740126068    4.09541339592519
C         1.02509973454242    4.90950266567254    3.87701547951748
H         0.34697973557785    4.53948930279023    3.11407287179245
H         0.54763767789299    5.75117226678378    4.36733324424108
H         1.15802738341617    4.12798248619306    4.61840449191381
C         2.44672489808997    6.75134698870167    1.85143353936076
H         3.37816117092972    7.10048344186734    1.42389504411636
H         1.96107519649235    7.59988903759885    2.32111738331813
H         1.81216415146160    6.41771781235773    1.04036144971266

