51
CSD_code = PETKAA | q = 0 | S = 0 | Stoichiometry = C13H27ClF6P3Rh | MND = 6
Rh        9.24150591853605    0.56043654460378    6.78591845482319
P        10.32276121337356   -0.70734659782836    5.15623936406527
P        10.46820715385040    2.52951852496210    6.27614721206564
P         7.90238116761198    1.62849199405612    8.36629069734157
Cl       11.06058058582143    0.39565408127586    8.27888364061033
F         9.29209027842941   -2.27227731562722    7.33282617288322
F         8.17806258236738   -1.19615703066746    8.81305572250989
F         6.48863582206672   -2.59264913724802    7.00545295906260
F         5.66177011400052   -0.75530645040150    5.04923108570912
F         7.94907288456898    0.65815757462229    4.18456845675406
F         6.82898424886290    1.73987548114618    5.67804701013608
C         8.44450900514181   -1.18757564648473    7.45680799119644
C         7.17040575930188   -1.47494090407965    6.70675947823060
C         6.78038532829301   -0.60433565461395    5.78106104432384
C         7.62742007643932    0.61578418623956    5.53230978498453
C        10.73856342058123    0.09778249543423    3.55067320321593
C        11.91097344146483   -1.42634345892708    5.68927076625028
C         9.50259680815586   -2.18598391670060    4.44238280556374
C        12.23059339689715    2.30805094443275    5.80928266876005
C         9.88638977876279    3.69409435087027    4.97387659115593
C        10.80685067184893    3.67684681020348    7.66939254024838
C         6.24123577862818    0.96125711497662    8.77157633989561
C         7.36191632688063    3.35883101628445    8.02631505872289
C         8.63655778476624    1.73594401448878   10.03146926071450
H        11.66875475059885   -0.32026914655871    3.16828447397014
H         9.93390426364597   -0.10414661049128    2.84823244252169
H        10.83174412072741    1.17419958532327    3.64783953885840
H        12.33828079161028   -2.02014915384819    4.88147610619405
H        12.59646436737238   -0.63689524871348    5.98852791757416
H        11.72102216242307   -2.05567582512661    6.55684928178323
H        10.15610387595351   -2.56373629206546    3.65518504655935
H         9.35111988529176   -2.96600781835821    5.18180745148134
H         8.54603231303867   -1.90744907593649    4.00480130563016
H        12.66990178178484    3.28823024415389    5.62374341166775
H        12.72608132484515    1.83949050766484    6.65796990007102
H        12.36272307980592    1.68210391740323    4.93294780308034
H        10.57137593799295    4.53469828773669    4.87230995786804
H         9.80699889197795    3.17046904229499    4.02330284940131
H         8.89383367460630    4.06087848229711    5.22769291042137
H        11.38854887578103    4.51977766022579    7.29602855306342
H         9.90370448577506    4.04446158667331    8.14509331547187
H        11.39351408995546    3.12270329168325    8.40026876997110
H         5.77965975540095    1.66052638587499    9.46977077814589
H         5.63170304888217    0.90476602946537    7.87193805476196
H         6.29646491407446   -0.01827675815739    9.23592295065004
H         7.35055973183837    3.92471586889784    8.95701452325135
H         8.00764357785225    3.84867997460748    7.30462214109658
H         6.35922745641782    3.32844676329712    7.60697726967317
H         7.94187494359205    2.22934131501188   10.71096514512680
H         8.84121153318679    0.72349520892428   10.37482814322973
H         9.57989681891983    2.27541275670124    9.98936164925380

