45
CSD_code = PETLIK | q = 0 | S = 0 | Stoichiometry = C16H22BCl3P2Pt | MND = 4
C        -1.41083384000431    0.28043053564797   13.05109547713416
H        -2.27417970180445   -0.13743458232325   12.53434925814592
H        -1.73918724254345    1.06901093437210   13.72554295782740
H        -0.92015861060871   -0.49561384254119   13.63576024835739
Pt        1.61253293062556    2.18718089246675   12.46644490411493
Cl        1.96204239528958    2.26085618900309   10.07412125916928
P        -0.21601734613404    0.97544730037486   11.84229087754510
P         3.42458608081373    3.56712131514663   12.57286350670082
B         1.26602666815344    2.24808899902721   14.44759367203357
C        -2.18722104083634    1.82777225275959    9.99061508970299
H        -2.34424363197735    0.79110825353126    9.72945935873067
C        -1.24265211520494    2.17478978346828   10.94670786226516
C         4.88607141462106    3.04065331358753   11.61202813057712
H         4.56881539703882    2.86404846399190   10.58559297427887
H         5.28357510828410    2.11540534626196   12.02584748343661
H         5.65085343486450    3.81679195730773   11.64679639772861
C         0.05070891276212   -0.44076256793610   10.72448202558751
H         0.67505604833642   -1.17036879240930   11.24068198998644
H         0.57440302542911   -0.09108706578628    9.83678065608604
H        -0.89627788273045   -0.90484915997345   10.45135444574708
C        -1.04431264347580    3.51549971779278   11.26505514549940
H        -0.28749336305821    3.77468778283010   12.01014896331758
C         4.15888963583352    3.91243014134585   14.20098686010114
C        -1.78053525092923    4.49878531198031   10.63289010723812
H        -1.62009871832932    5.53818914422514   10.87804301796427
C         5.07299242094262    2.94992952123021   16.21059024413196
H         5.35757286539383    2.08101732381072   16.78526699317307
C        -2.92147532845234    2.81530536711387    9.35700172285475
H        -3.65014801169317    2.54418162241020    8.60678140791255
C         4.53346376188589    2.79894783607411   14.94880802347641
H         4.37759223189711    1.81097560197738   14.53095021066940
C         5.23446820316736    4.22039493156059   16.74196619157886
H         5.64719552878039    4.34300144711063   17.73229021571751
C         3.02044469025851    5.18971182814949   11.84583821132941
H         2.24368055747120    5.67335001185284   12.43749528319719
H         2.64015585925629    5.00576927745598   10.84089892158276
H         3.90638760519865    5.82197498940785   11.79241435068909
C        -2.72019118756472    4.14764182547214    9.67636831037801
H        -3.29201459523454    4.91415290810703    9.17443640930537
C         4.31836904789002    5.18064862583540   14.73986176729867
H         4.01595410246862    6.05389444407127   14.18209719393268
C         4.85572787620534    5.33040285963995   16.00754862691862
H         4.97214464224086    6.31967420308576   16.42560156409466
Cl        0.88189771725513    3.79677690903671   15.15104345035159
Cl        1.31303234822748    0.94186684242140   15.57450823212684

