73
CSD_code = PETLAC | q = 0 | S = 0 | Stoichiometry = C36H30BCl3P2Pt | MND = 4
Pt        2.27027204675852    9.82212049035140    6.53833908508017
Cl        4.01572467610915   10.12783742022184    4.86106634337112
P         2.22558319441479   12.09764090045596    6.70331485846931
P         2.94594029230289    7.67453854169470    6.24069406557087
C         1.27170664739694   12.84557766967906    8.06052054389615
C         4.69576702713510    7.59608752804505    6.69672181308129
C        -0.89472709341621   13.43398602932628    8.92264773308415
H        -1.96210323025853   13.52502317653011    8.78635598043911
C         7.04253131665632    7.53049714885150    6.22048648831872
H         7.84973903237635    7.43315573473340    5.50933017623441
C         4.62423127273240   11.52596049044245    7.86148598712086
H         4.09039514593783   10.62914413825318    8.17760146019128
C         1.84623544170633   13.17979306652174    9.28061530606378
H         2.91327002352384   13.07466500865889    9.42028963275581
C         1.32177556644219   13.29710087358660    2.92975837960694
H         1.23694641173602   12.83562901600376    1.95712927628951
C         1.05073314025037   13.64583839491525   10.31297955251708
H         1.50050287892083   13.90519763155225   11.26019559547530
C         2.72892536696027    7.09347216275186    4.54159193318130
C         1.77090574733919   13.12500234064161    5.28161165356220
C         5.73146112381855    7.46666016692155    5.78149374699928
H         5.51114074874735    7.34365228717654    4.73123036858328
C         6.62110191958641   12.84063529257642    7.75080611695259
H         7.66581744699250   12.97624816285107    7.98932658049030
C        -0.31661988360585   13.77275248627905   10.13661741103804
H        -0.93438052847986   14.13058286296743   10.94689095270183
C         2.26591295623491    6.24986269161888    1.95045000461422
H         2.09589914167287    5.92383868943683    0.93478090488686
C         7.32286573382822    7.73209043457205    7.56181052884535
H         8.34897009909206    7.78630640458323    7.89550877741093
C         1.65822051386941   12.53011836488653    4.03079725109661
H         1.85441095075685   11.47073447006363    3.93127155223700
C         3.95086954120387   12.48765789371053    7.10964692732463
C         1.53363473175921   14.48947699877417    5.42882880947777
H         1.60251968499903   14.94649257621610    6.40732082034548
C         1.89614820674859    7.83190776862139    3.70966875997133
H         1.44567665487496    8.74331133378295    4.09563723684145
C         1.66787761223222    7.41127375106613    2.41303762088856
H         1.02783409068353    7.98688402544622    1.76075835588753
C         4.97799601887851    7.81443517671776    8.04488959800476
H         4.15855518639336    7.93447358439598    8.74473703048180
C         6.28961288245391    7.87710493289797    8.47483186993874
H         6.50727240266992    8.04414780708520    9.52007358316912
C        -0.10552522090754   12.96792752892366    7.88981370024572
H        -0.54757845659997   12.68936199824665    6.94186178546448
C         1.19951984641363   15.24989941020692    4.32377806034792
H         1.01860236545886   16.30921714853066    4.43534867485262
C         5.95408687856611   13.79680861243647    7.00383455417292
H         6.47854942400108   14.67720621398779    6.66180214695922
C         3.30638901058483    5.91353727686969    4.08685840689326
H         3.92812586965525    5.32678697685128    4.75004024712774
C         5.95569336742414   11.70222403204401    8.18036892789622
H         6.47884396661208   10.94714590389267    8.74840947916652
C         4.61932270693821   13.62399849849139    6.67752421334813
H         4.10662816922301   14.35927663828228    6.07357647937061
C         3.07847196198648    5.50036563906180    2.78685537709635
H         3.53440557141398    4.59066711891108    2.42370975058458
Cl       -0.79523113989928    9.63224062424031    7.89607530430735
Cl        1.51661501110839    9.16120064491230    9.60557456816992
C         2.19958513528203    6.27367460179397    7.14215480546626
C         1.09462045818029   14.65558533427126    3.07540476714752
H         0.83234496069903   15.25517447003795    2.21605040567650
C         2.93327925147192    5.26886445051992    7.75850652857332
H         4.01389110670651    5.30443645268026    7.75290136227868
C         0.80928451385658    6.21589846453466    7.15106040649996
H         0.24844488048935    7.00511430315683    6.66463373636954
B         0.92791667981894    9.51556380141854    8.00591724271024
C         0.15803763143689    5.17284690724681    7.77965497570346
H        -0.92118216594514    5.13665612406071    7.78857476363567
C         2.27742070757835    4.22597759362530    8.38999859401278
H         2.85034661095168    3.44890409159220    8.87486883750296
C         0.89391827653389    4.17726019302088    8.40366702429540
H         0.38782048010462    3.36376301973092    8.90202420068707

