55
CSD_code = PETNIL | q = 0 | S = 0 | Stoichiometry = C14H29B11Zr | MND = 12
Zr        5.20612058461429    4.01075900953071    3.83344695595411
C         6.48790228731869    5.98493813752147    2.55904913370992
C         7.45625111584907    5.38503629279392    3.38497395459244
C         7.64161514778545    4.05037244728474    2.96423905908460
C         6.80823324013838    3.83321493417257    1.84744415570053
C         6.08920721408861    5.02222186521457    1.60420999632221
C         6.11791559604733    7.44201227175762    2.56499920494191
C         6.14738673743670    3.00015106200546    6.40187589359017
C         4.77523722597747    3.25565221638238    6.57474110681777
C         4.52482915219752    4.59978233023168    6.25670469560702
C         5.75714673071985    5.19988417857012    5.87391238878039
C         6.75514331009250    4.19168108265732    5.97773345582820
C         6.86566171315475    1.72124387848205    6.72198497148423
C         3.57210806212468    5.51745768285687    3.49176429386715
B         3.24170102799986   -0.79875431514719    3.52449073376319
B         3.87392814133378    0.50963903539116    4.53024975875777
B         4.88751800835886    1.52631675426122    3.48226237697630
B         4.89788523062501   -0.23252340186282    3.26492981353253
B         2.21991301599445    0.58946192257907    3.90895501859585
B         3.22830233436226    2.04259012921589    3.89033624996088
B         3.85504002251927   -0.59039630596271    1.87973920538142
B         4.87662932776527    0.85046553841473    1.84020496403498
B         3.84403030604701    2.25414286746433    2.22703933719078
B         3.21298640019541    0.92717296283759    1.24310596961155
B         2.20541772106990    1.66481716710971    2.50178213042879
C         2.31101707709521   -0.02402972806235    2.32555780419414
H         2.91773139639449   -1.87042947935462    3.88838673316368
H         4.09339480215482    0.35386662795918    5.67927679870173
H         5.90002826726779    2.06364248605116    3.92079952093256
H         5.84073759189648   -0.88917084783145    3.53210604774300
H         1.22978884751947    0.43598679421656    4.52715764782287
H         2.95900944716439    2.96230481271497    4.60042774986703
H         1.44753742010991   -0.54887907528781    1.93734613120059
H         3.93202704409538   -1.52543021471661    1.16863231632234
H         5.80446613004772    0.92849507653280    1.11184415901318
H         4.01292994520687    3.33299945112030    1.73899699205264
H         2.87310275244203    0.99567462499953    0.11790279725170
H         1.20941399035830    2.21683177771401    2.19998008805586
H         3.76023160931746    6.48938433390474    3.97532361414301
H         2.59907486350582    5.17426568664488    3.87785135311663
H         3.40004535974139    5.73683687799292    2.42646611256165
H         6.00257044214890    7.81804657000971    3.58213315587206
H         6.90300097297989    8.02751943361271    2.08210349536839
H         5.19242948844374    7.61060670409897    2.01878331813129
H         6.29565823066287    0.85319384240875    6.39594995852362
H         7.01682731214009    1.63508735360883    7.79933507265907
H         7.84478073222329    1.69903441846223    6.24491071488749
H         8.05316630393251    5.91249807376079    4.11668873373925
H         8.40989360573843    3.37278383352636    3.32031225575834
H         6.82214490238107    2.96287868079421    1.20641644371473
H         5.46079764369824    5.21694363744091    0.74430843061551
H         4.05386459764872    2.55662296406696    6.96699812596226
H         3.59560822015704    5.12804115085309    6.43255226713591
H         5.93501741919918    6.26868842885962    5.78933910190752
H         7.82479393052268    4.34626596011737    5.92213823507996

