67
CSD_code = PETPDC | q = 0 | S = 0 | Stoichiometry = C34H28PdS4 | MND = 4
C         3.29345197699608    0.02746505047375    0.49078282774367
C         1.80904809647698   -0.07131695485627    3.92683787527742
C         0.70962627630788   -0.60544148582764    4.74845413426882
C         0.84885072156063   -1.82883024414835    5.39974521502418
C        -0.17479614176501   -2.31576656796482    6.18935114215140
C        -1.34596763323342   -1.59087121819280    6.33916408939852
C        -1.48443525976468   -0.36744351535070    5.70574307578835
C        -0.46061981969590    0.12771242559935    4.91991691400543
C         4.44487750537658   -0.05720157080123   -0.43706445637153
C         2.45337698057323   -0.83379228286342    3.00810373513729
C         2.05484852723204   -2.16783014439712    2.56729581821216
C         0.70916833702491   -2.47982100396716    2.36077101658315
C         0.34153217498687   -3.73736267251550    1.92509584214514
C         1.30392541325732   -4.70165172936117    1.67155354529959
C         2.64254772491277   -4.39573714516318    1.85165488432076
C         3.01620752747381   -3.14056626573114    2.29085145526950
C         5.17578067551040    1.01475792003684   -0.72726555480243
C         5.91255333722929    4.22218867021239    1.64219647803484
C         6.82626681606105    4.82012896211700    0.67253956435570
C         6.51530122728190    6.03334539903276    0.05425662786407
C         7.37107668711237    6.58209864604131   -0.87995264180235
C         8.54270009888004    5.92870726989310   -1.22761374658638
C         8.85061984814695    4.71510523226571   -0.63563950869038
C         7.99977791599854    4.16256999265053    0.30189826647066
C         4.86853483342527    2.33650276133668   -0.13360434539633
C         5.20946093396915    4.88822984537849    2.59239034216806
C         5.45238957719998    6.30988400668732    2.89020827742896
C         6.75099167468188    6.78175391860291    3.06766516962062
C         6.97120909956308    8.11085646154076    3.37346388750674
C         5.90307221649645    8.98313508574391    3.50693670368820
C         4.60931117710979    8.51683008616841    3.34604939002585
C         4.38296037110249    7.18668870506209    3.04591081573238
C         3.36632533613246    2.59205672092375    0.03468640989792
C         2.51337745015273    1.34177021718066    0.37201428888260
H         2.61876911698017   -0.82203040337332    0.36292271504187
H         1.76611603170930   -2.38838355254497    5.29141049156261
H        -0.05674409957959   -3.26387334317505    6.69310342048922
H        -2.14540761247221   -1.97614918645382    6.95469882663173
H        -2.39190992238537    0.20575830299737    5.82643541644708
H        -0.56104604736295    1.08424390380343    4.42848980050309
H         4.69213289101086   -1.02950031227406   -0.83412319021427
H        -0.04469215880590   -1.72803689773314    2.53985717983124
H        -0.70361697087952   -3.96471905430879    1.77469209883250
H         1.01216040493388   -5.68363533245953    1.33050839656028
H         3.40000925039312   -5.13953692322965    1.65160791882386
H         4.06158818330660   -2.90847264744851    2.43766720177912
H         6.04019020007751    0.94766704740637   -1.36948336497090
H         5.59579389742829    6.53885199730647    0.30848974228605
H         7.11803620712936    7.52287711743946   -1.34645854707533
H         9.20849647855821    6.36067894923162   -1.95965705905058
H         9.75977621805256    4.19691797811153   -0.90394044352762
H         8.24739169541299    3.21867900416087    0.76673899561998
H         5.32425130696954    3.14500681935877   -0.70967134869845
H         7.58324376407366    6.09978949449470    2.97552828474548
H         7.98138210248032    8.46707880579806    3.51226970673111
H         6.07936287653830   10.02208626676495    3.74339127197189
H         3.77236182385192    9.19030540525291    3.45817316667025
H         3.37559624460338    6.81640729206591    2.92532528541747
H         3.21882812730616    3.37131283256089    0.80233094406574
H         3.01041033130875    3.00558396967806   -0.91266634420256
H         1.94746415259388    1.50828118653025    1.30471755305973
H         1.77948261280645    1.20032025594059   -0.42583260336471
Pd        3.98224917211621    1.99110600735679    2.91520960661491
S         2.20681556884998    1.57275566840934    4.30153809814129
S         3.94035179296047   -0.22757458187067    2.24290857781391
S         5.77309242390685    2.45345325289443    1.51674900486937
S         3.99821225236144    4.17529610148927    3.60577165792202

