97
CSD_code = PETQIR | q = 0 | S = 0 | Stoichiometry = C36H54P2RuS4 | MND = 6
Ru       11.37412522420593    7.10811281593180   12.17638061864511
S        11.60860341389439    5.10310351961138   13.51737353050425
S        11.83299330663661    5.72616933812328   10.32244282050545
S         9.10659694870376    6.60315870758640   11.67772167488809
S        10.93712899328480    9.05134625522083   10.75044975686985
P        10.63611378317784    8.23768261166901   14.07720997226723
P        13.65250896729973    7.53775307986288   12.32203934966705
C        11.45246226585787    3.85165797744916   12.33559513323046
C        11.52185266812165    4.07860570134474   10.95856457899318
C        11.42300059776847    3.03783932410805   10.05040399012602
H        11.49082485936094    3.24808504785137    8.99252420980957
C        11.22278187970691    1.74673622739052   10.49745022112405
H        11.12972513134783    0.93868129732055    9.78836559249714
C        11.15056497010807    1.50048180407941   11.86408448465562
H        11.00146801597078    0.49192049241195   12.22108525566254
C        11.26871704104282    2.53114753970380   12.76699997378513
H        11.21794589460464    2.35093147011529   13.82985006627865
C        10.35658604335402    5.88046496706414    9.32829034004628
C         9.15707139212089    6.22805241590947    9.92753618525932
C         8.00214062710565    6.31183992323230    9.16678592517970
H         7.06893701939516    6.58191724280213    9.63785090055905
C         8.06248091998237    6.07424636611765    7.80540746362828
H         7.16351631573331    6.14956331405353    7.21261850390438
C         9.26837669908391    5.75303437648493    7.20214360705050
H         9.31386739655865    5.58459478596804    6.13695037031379
C        10.41898660399507    5.65220548726320    7.96381232117153
H        11.36884127422161    5.41555363972488    7.50799827653539
C         8.41368004968707    8.23773328921143   11.45970302117327
C         9.24067822991188    9.26392240471388   10.98992153432117
C         8.64110102441270   10.49771705676586   10.70783290527049
H         9.26547232596370   11.28869406606892   10.32092627234885
C         7.29810800956255   10.69791273394064   10.93571655463164
H         6.85999066868573   11.66267785107476   10.72454458582750
C         6.50197679597469    9.67652278542092   11.44191174297872
H         5.45244086759393    9.84175709664856   11.63088051536876
C         7.06432631240143    8.43756790023960   11.68910291594371
H         6.46255462307494    7.62060721868019   12.06357924639852
C         9.03295164687876    7.65405662411223   14.80407899800430
H         8.85789537156076    8.25480000078893   15.70307658415358
H         8.24831204985567    7.91336709412272   14.08485801077086
C         8.94109707295966    6.17354305664554   15.15208600476639
H         9.08236215382628    5.57224060635913   14.25243017444981
H         9.73620253130628    5.90575846643885   15.84981825609987
C         7.58721221580935    5.84624040210536   15.76957689258353
H         7.52531401027511    4.78717665944203   16.00720841288139
H         6.78229366603929    6.09041684848057   15.07876280296866
H         7.43387069772481    6.41380509010828   16.68600490038186
C        10.18166996576544   10.03180243690546   14.12243729650333
H         9.32226360294675   10.14376103424831   13.45257060988345
H         9.84029690254090   10.25717912496736   15.13781453201308
C        11.27246150918413   11.00506376396808   13.70058307549789
H        11.61412923663957   10.73523494030735   12.70078566709611
H        12.11928865487632   10.93341392858371   14.38627689397387
C        10.75128480007927   12.43685583569998   13.68879770343537
H        11.53611472099371   13.12468620348108   13.38276073341773
H        10.40381671070531   12.72975982785356   14.67829137068901
H         9.92058755426859   12.53066145585938   12.99265730749352
C        11.79892074241742    8.01606606728169   15.49097166856222
H        11.88579030029375    6.92921033107450   15.60092987475838
H        12.77136685629219    8.37837555639531   15.14321578208860
C        11.46085571384826    8.65515658882221   16.83345930264207
H        11.40212770294467    9.74025257262026   16.72931426382035
H        10.49608160037276    8.29460368146838   17.19272516303069
C        12.53047147213167    8.31173432789695   17.86539853392703
H        12.29416813663092    8.76440749928295   18.82585355927923
H        13.50423694507608    8.67635567169893   17.54400856691962
H        12.59710670222115    7.23423010517324   17.99991679403191
C        14.12665193602534    9.28797003100404   12.65969945914100
H        13.52655269974995    9.87333746119093   11.95583795970068
H        13.76045721306580    9.51759416792092   13.66374056559314
C        15.59412374409032    9.69172302744652   12.54851791003655
H        16.21501863500819    9.06638288192998   13.19306827377404
H        15.94429746392225    9.56884323390923   11.52359474237048
C        15.76888934743002   11.15121252164683   12.95633040716255
H        16.80948317110768   11.45306252806380   12.86011023358656
H        15.46250813941066   11.30096270757087   13.98955498605918
H        15.16297633159401   11.79657596493295   12.32437177857894
C        14.65061784471971    6.57348401600783   13.54409292144476
H        15.55826283005620    7.12832184414942   13.79457372082353
H        14.03320683794976    6.49319011503434   14.44281795930767
C        15.00112867189493    5.16547527001532   13.06372268095402
H        14.12638825592271    4.72012151471222   12.58421369748039
H        15.80558840737396    5.20881914780301   12.32757495367692
C        15.42636821676979    4.28168681681831   14.22918440509542
H        15.71065756007045    3.29419568335069   13.87317107741036
H        14.60340740526146    4.16908011758207   14.93078613735100
H        16.27456365153104    4.71774092454238   14.75393949845946
C        14.60465945167576    7.21380451101254   10.77296465141690
H        15.66625413364600    7.36935646760315   10.98843057007407
H        14.46402248696559    6.15790600959113   10.52248634149788
C        14.15062849264414    8.07811531282247    9.60034876951329
H        13.06093844023698    8.03770313422454    9.51963441717848
H        14.41907251770449    9.12056890302746    9.77676012239377
C        14.77366444116616    7.60720452821420    8.29259139569141
H        14.43939012837538    8.22987976127676    7.46640824205452
H        14.48977168486262    6.57766745233389    8.08432872762111
H        15.85985145364822    7.65750001091297    8.34441924094024

