93
CSD_code = PETVUF | q = 0 | S = 0 | Stoichiometry = C38H52P2Zr | MND = 12
Zr        1.54196218407560   14.82688489108473    1.25880618676596
P         4.11330727305099   14.70151180033367    1.73145351536317
P         3.57492329373004   14.75541209869709   -0.38744932030160
C         4.68538206166178   16.39410336599781    2.13522239779000
C         5.69969135584737   17.07964271654379    1.43960066262368
C         6.07398104818234   18.34785667574402    1.84927522534739
C         5.51913813845015   18.96022508907208    2.96471133262510
C         4.58953834466938   18.24293452294616    3.70061896741399
C         4.17748370985880   16.97770483118719    3.31155107406487
C         6.42767098445372   16.44544549067422    0.29851382347717
C         5.94024200248022   20.34194013949441    3.36510184536575
C         3.22074748040092   16.22160438957737    4.18554522767332
C         3.74523489628002   13.03111921160812   -0.98182308564169
C         2.69015651726685   12.51697242376051   -1.76209106658202
C         2.76183188666712   11.23365181120869   -2.27620820554206
C         3.86902707203346   10.42478222938307   -2.05904499543019
C         4.93490426367483   10.96315843033104   -1.35621290790851
C         4.90675705507614   12.25024919035433   -0.84180934940103
C         2.76877454412756   11.37873575533563    1.56100730440520
C         3.91225717458895    9.03062282132321   -2.60823902055594
C         6.14048530875184   12.79534555869035   -0.19758319374779
C        -0.34664955696710   16.09869281647186    0.06594650065836
C        -0.43132672185855   16.49598579414249    1.42910637049985
C         0.76595330730406   17.19739892906586    1.76252745895108
C         1.57172198087693   17.27128331138454    0.59119896519154
C         0.88512712544938   16.59051762407841   -0.45435348424427
C        -1.46018112907737   15.55670848427644   -0.79420748458918
C        -1.68296091281621   16.61984100452758    2.25350170871985
C         0.89210210523777   18.08231991899276    2.97383719888190
C         2.74495455135333   18.17336656905700    0.34277469701180
C         1.23203802987332   16.74603104186615   -1.90851913069786
C         0.35482884526032   13.68544825559224    3.23167330047454
C         1.64315646821462   13.08863672004697    3.11335044965179
C         1.69369138798302   12.37528630516250    1.88182634674956
C         0.43616462337704   12.53448108606287    1.23375289420071
C        -0.39921815278343   13.32157760497917    2.08184914046460
C        -0.16831522099509   14.29550425268708    4.50744472573124
C         2.62626969800121   12.87955264471699    4.23081526276109
C         1.49778799070427   13.36806712914613   -2.08586274383984
C        -0.09884452542359   11.66462186852526    0.12765168794483
C        -1.89769170521676   13.31292253032090    1.95468377361835
H         6.83916930862887   18.87274691513563    1.29334812886260
H         4.18290969546969   18.67507861261782    4.60632335918353
H         5.74506404752035   16.19368927296987   -0.51467665461034
H         7.20258048935510   17.10655350510536   -0.08278110453715
H         6.88788809718170   15.51881024051467    0.64023958331905
H         7.02485663141926   20.40386660648247    3.44164770385338
H         5.61831694923509   21.06687628023096    2.61696988314994
H         5.50663067813307   20.61944639477989    4.32301048262451
H         2.81357248458373   16.86522485086691    4.96361606946946
H         2.39913781275542   15.79264629795207    3.57807109378977
H         3.75161724642292   15.39940947404271    4.66612029134534
H         1.94040172353318   10.85319192390718   -2.87019851159559
H         5.82759716994687   10.36772943465975   -1.21958985707169
H         2.70848013732381   10.54430466443496    2.26473733327865
H         2.66739327884633   10.97923330888196    0.55567991374429
H         3.76162511318247   11.82056916928919    1.65914422104476
H         3.05825571085511    8.45341162399061   -2.25443853930144
H         3.87196656251878    9.04978761347409   -3.69731642230170
H         4.82440054806777    8.52275507350766   -2.30527800960770
H         6.94445849259884   12.06320798548246   -0.21702461972473
H         6.45957388620344   13.68727976262700   -0.73586757873615
H         5.95086727639752   13.08549364277711    0.83702642691118
H        -2.39583920683403   15.51671716603408   -0.24061879125677
H        -1.61888446863776   16.21913873838852   -1.64715908876965
H        -1.24799961056702   14.55871831202935   -1.18923652352601
H        -1.99190430574856   17.66929570294286    2.26345864971776
H        -2.50366635519784   16.04318971907100    1.83705789849232
H        -1.53420622653375   16.32073578140565    3.28912149192239
H         0.54052721072196   17.59108811755264    3.88197639944618
H         1.91800287378007   18.41077708881341    3.12133421862680
H         0.27591061972519   18.97501192433666    2.83064654802073
H         3.53296903908006   17.65706964578130   -0.20779357385797
H         2.42316558102896   19.02469268344526   -0.26296322183102
H         3.16603364213635   18.55817240332351    1.26755161285265
H         0.57968784276507   16.14794536062526   -2.54060086532001
H         1.10888028531370   17.79416973745887   -2.19379698498301
H         2.27026371707451   16.47546721857823   -2.10900060490205
H         0.29012424451787   15.26174942589141    4.73811693808749
H        -1.24722391242539   14.42741905850630    4.46289126354374
H         0.03987921443425   13.62653391238664    5.34455640836414
H         2.56703573315331   11.84114018314738    4.56754106452234
H         3.65301612939126   13.05688852966781    3.90600702224111
H         2.40601313254419   13.52046002775977    5.08139786572382
H         1.10479027641287   13.84768468442231   -1.16750499985301
H         1.79987536405018   14.15548491579828   -2.77679646212105
H         0.71721217346438   12.77743971122137   -2.56257998793463
H        -0.80443542783217   12.19715278820948   -0.51116561659986
H         0.70378723711392   11.26321710128006   -0.48620359853080
H        -0.63576975647267   10.81805303556193    0.56606301837794
H        -2.37311594067499   13.94173252916114    2.70175195019001
H        -2.23679303534920   13.62284566499711    0.96820326864584
H        -2.25540419441972   12.29094884402031    2.11103745166179

