75
CSD_code = PETWAN | q = 0 | S = 0 | Stoichiometry = C28H42N4Ru | MND = 8
Ru        5.19963724017544    4.10633020163111   11.01453987240409
N         3.16545506099574    3.23827954549773   11.22548513333126
N         4.65926267429777    2.67899824310875    9.70982119885972
C         6.27497666635069    5.56473156809650   12.18581821602005
C         4.91583982565807    5.65045658010429   12.50385168700524
C         4.08582956919429    6.84053037150161   12.04996014416651
C         6.97882448444301    6.61500186779491   11.34920807198378
C         3.41876328247811    2.41937708526155   10.21601830096226
C         2.64465159275558    1.38973725729345    9.61604506060089
C         3.13704527717014    0.69322607437036    8.54062282594859
C         4.41169819080350    1.01385569280923    8.04608995201257
C         5.12817555384912    2.00824563501620    8.66889850398820
C         2.34092314170923   -0.39345615249339    7.88554164136413
C         1.91051422979774    3.18509471657188   11.96010671228028
C         1.97868101894843    4.14297003114011   13.15446825224590
C         1.62999710130494    1.76214939875454   12.50887383729292
C         0.74418166821428    3.65038228378607   11.06611295358252
H         8.01114769566851    6.29414012734085   11.20137063628396
H         0.88965311786720    4.68758578876261   10.77363865851496
H         6.11722998561715    2.28091982149116    8.32503248892999
H         1.02611110991921    4.14103377584479   13.68092293233401
H         0.85121694770764    1.25815028525349   11.94264454237602
H         6.93469587910584    5.09552141814410   12.92332497041168
H         2.53079759163092    1.15387132521414   12.47012529952188
H         1.67101250733695    1.14077959177091    9.99956301445319
H         2.18531518324337    5.15092665495710   12.81748063729746
H         7.01775021118792    7.55611883883327   11.91227045530305
H         4.72973741164754    7.72264860512962   12.01515378889767
H         4.61313154751594    5.22747355944913   13.46155344880823
H         4.82275618406349    0.48842825733301    7.19940154900364
H         3.31446312372888    7.04884430888253   12.79499023665342
H         0.67618762494511    3.05594051009104   10.15993088193065
H         2.75794519222286    3.83932174116537   13.84771459723190
H         1.38736973916552   -0.53901306115655    8.38713019308466
H        -0.19500329979370    3.57192392212851   11.60949933462543
H         1.29892801673287    1.81379985036465   13.54370681926657
H         2.15282278641192   -0.14366413667655    6.84177268241733
H         2.89503187876280   -1.33109274199333    7.90726623628756
N         7.23391514131758    3.23832822017063   10.80362179692481
N         5.74014254555401    2.67904723573393   12.31932244647175
C         4.12444945197016    5.56478785129074    9.84327240169231
C         5.48359887825835    5.65044869736833    9.52525186082407
C         6.31363274947784    6.84050549225679    9.97913086779108
C         3.42061287208753    6.61505160372796   10.67989332427594
C         6.98062573169518    2.41942291852324   11.81308661819438
C         7.75477011462503    1.38977763886143   12.41303139246560
C         7.26243802718561    0.69328070361757   13.48849128236234
C         5.98779939990778    1.01391229722218   13.98306688602905
C         5.27129075671716    2.00829667015715   13.36027854573408
C         8.05857101197362   -0.39341746698759   14.14354125416431
C         8.48883446986994    3.18508654110207   10.06895454304828
C         8.42063139053139    4.14295571551693    8.87459137350806
C         8.76933588045953    1.76213024035053    9.52021623646169
C         9.65521691536387    3.65034434029527   10.96290596569586
H         2.38827234669449    6.29423959323368   10.82773077851448
H         9.50985904061468    4.68759582869226   11.25525991707052
H         4.28222490683918    2.28092602601235   13.70414660478093
H         9.37316458804297    4.14096114036324    8.34807244381441
H         9.54828932988908    1.25821750902777   10.08628023763984
H         3.46471931278643    5.09553081646143    9.10580789079737
H         7.86860700185041    1.15377631319443    9.55920686337103
H         8.72839394978082    1.14082530104665   12.02946404170490
H         8.21407825494435    5.15092245749376    9.21159650700683
H         3.38173226431758    7.55616066332214   10.11681615034407
H         5.66974640932950    7.72264151763397   10.01391520774668
H         5.78628032048503    5.22745628307528    8.56754475134800
H         5.57677447420566    0.48849169913145   14.82977668172129
H         7.08500946880364    7.04877765468178    9.23410039085559
H         9.72316787679417    3.05599730972807   11.86915529749184
H         7.64129852756725    3.83934951407675    8.18140247790107
H         9.01262887404552   -0.53814486530776   13.64267989278530
H        10.59438632986528    3.57173567252577   10.41951705926689
H         9.10014529258616    1.81373129305650    8.48530338782713
H         8.24561838630344   -0.14428348693666   15.18765040252449
H         7.50498069442404   -1.33133578230566   14.12066045216021

