65
CSD_code = PETXOD | q = 0 | S = 0 | Stoichiometry = C26H31N4O3V | MND = 6
V         6.17222699887727   -0.16994705496239    0.50119617573136
O         5.60084057893553   -1.34558872380685   -0.28195030029733
O         7.31286683725878    1.19401440322753    1.37601608540227
O         4.84022354357618    0.32869757256650    1.57077760478028
N         7.00905879186743   -1.23577831119115    1.70077892857043
H         6.91953132166262   -2.24855438116405    1.79916786834793
N         7.66958863946485    0.07019846978938   -0.85070265202368
N         6.39060679815894    1.82030141613811   -1.57092723625904
H         6.20298831604210    2.60995826525951   -2.19012888059590
N         5.48282887404105    1.44751546202205   -0.65141981482615
C         7.78080203733822   -0.66237971624367    2.64253763393728
C         8.42767467986507   -1.28032690859577    3.71706484229361
H         8.29831306270841   -2.34222375379546    3.88443995358550
C         9.20874221593921   -0.51815215515760    4.56006062359798
H         9.70576046037606   -0.98028555356448    5.40014837792565
C         9.36313571260095    0.85063847614498    4.33635446763312
H         9.98048036733564    1.42751769568244    5.01064621276801
C         8.74824765824686    1.48136372219139    3.27657254774239
H         8.87101710958286    2.54250683007017    3.11281055965222
C         7.92916003829350    0.74094315208452    2.40535972354972
C         8.76064984839651   -0.68085311913362   -0.93037362060627
H         8.82158178030001   -1.50198668475678   -0.22661014653911
C         9.76826044811277   -0.44353477406752   -1.84564624321307
H        10.64233470333095   -1.07301960913522   -1.86937912277669
C         9.63187033898337    0.62449854246994   -2.73021402925476
H        10.40129123627199    0.83867263323888   -3.45626358970577
C         8.49921227404698    1.40287669847793   -2.66616401213368
H         8.34706978997760    2.23553791153313   -3.33573174420524
C         7.53041630701302    1.09354570868784   -1.69825451087022
C         4.35739692781944    2.05563173948836   -0.56716285527443
H         4.13453801091099    2.87464712383435   -1.26637488816355
C         3.35290489025338    1.71823000960802    0.38846488121584
C         2.08477101757853    2.30765082478860    0.30556099953238
H         1.91136467234620    3.01530209423204   -0.49285898474996
C         1.08119433228791    1.98878320220617    1.19256100801290
C         1.37106206870563    1.04235538843700    2.18496186865684
H         0.58831020556462    0.77065563373755    2.86949658397106
C         2.60307516105563    0.44135253872331    2.33139144575795
C         3.64995026082999    0.79128325128676    1.42964299157470
C        -0.28576432422135    2.64630003418269    1.05828903678759
C        -1.27506292182742    2.18856593215381    2.13339016749336
H        -2.22478539583845    2.70089022111142    1.99187175008186
H        -0.91018293822448    2.42856188237758    3.12923344452694
H        -1.45932964473355    1.11906907219893    2.06672761560856
C        -0.87687842382145    2.29336122501110   -0.31402302462681
H        -1.86575397687905    2.73419414359093   -0.42278843770516
H        -0.96538465228143    1.21417334583359   -0.41740882142343
H        -0.24947206394636    2.66108479107969   -1.12107489559853
C        -0.12553892037594    4.16851367564475    1.17833129364624
H        -1.09498593966213    4.65635097719241    1.09952840564671
H         0.51722358818823    4.56194946018095    0.39591829379412
H         0.31327563291460    4.42458991912681    2.14022742495477
C         2.88302562166359   -0.61059918371395    3.39869852355473
C         1.66522760554082   -0.89002027066729    4.28691001378640
H         0.82688897436026   -1.26216456657097    3.70264399058295
H         1.35838600338091    0.00244271742121    4.82790886161772
H         1.92554210829515   -1.65177637127517    5.01890006349530
C         3.27493459869208   -1.92313700551341    2.70162652005466
H         2.44380832614635   -2.28812063021921    2.10080408051463
H         3.52146031803228   -2.67780908356637    3.44623565770025
H         4.13621668584129   -1.78172198401193    2.04649461898234
C         4.02908137079413   -0.13846645724079    4.30569575745855
H         3.77648537098072    0.81414603149994    4.76836031107252
H         4.94920687049405   -0.01747325592681    3.73776657041487
H         4.20562781053169   -0.86895264027473    5.09288402484823

