93
CSD_code = PETXOB | q = 0 | S = 0 | Stoichiometry = C40H48NP3Zr | MND = 12
Zr        1.78837675255775    4.48103431082889    1.30702027120997
P         4.29078783695042    5.06277813090605    0.81667743102319
P         4.44616660472973    3.01720280316491    0.14403234998861
P         3.66303555073771    3.56448341400720   -1.83123100371585
N         1.35175512701131    3.39565634713845   -0.35170218773779
C         5.11982738096078    5.01206132953645    2.43326982586860
C         6.33719109029053    4.35859789799508    2.63941435320739
C         7.00494755832101    4.47716358530137    3.84222237950444
C         6.49510725394833    5.27735282745001    4.85283823502474
C         5.30279122358593    5.95542008141739    4.65211518376872
C         4.61898300540564    5.81848132581316    3.45931553684254
C         6.17129589851814    2.86629242946956   -0.50092673860542
C         6.79726018445583    1.62833644685442   -0.42161877600743
C         8.06489097545075    1.45008673904654   -0.94533017694860
C         8.71926092029833    2.51022258651109   -1.54847312350982
C         8.10583425785354    3.75104471391925   -1.61928880054523
C         6.83923487854352    3.92884590667070   -1.09820091643668
C         4.26751253769304    2.08143190834718   -2.71435889235435
C         4.92739116202762    2.25985663960808   -3.92537745756073
C         5.45365492585161    1.17671741246991   -4.60483518882678
C         5.32595827524417   -0.09818031049845   -4.08055842253889
C         4.66746241279486   -0.28588846714904   -2.87581038240271
C         4.14119420242483    0.79506616763983   -2.19600865225887
C         1.88184628301450    3.06816184709842   -1.42432099712255
C         1.16385617574526    2.35469694983697   -2.54618567541119
C         1.78468232867499    7.04971838112862    1.03432551412227
C         0.72368036142882    6.73086208298379    1.92863815702227
C        -0.26096156992058    6.00979628512127    1.19081123137316
C         0.20311673087737    5.87722430175998   -0.14745110873135
C         1.46677528955171    6.51030250231532   -0.24281708530750
C         2.86446447322820    8.06965585730241    1.27439189926218
C         0.54300996229853    7.39847820846861    3.26834592745344
C        -1.70204708370313    5.77776043635035    1.55527820766084
C        -0.64517189769190    5.37933917704359   -1.28395752677004
C         2.25631459805503    6.75129908074743   -1.49537058565497
C         2.57727803781350    2.78411378481143    3.06489892051581
C         1.78277131044257    3.73135945883641    3.77678885365937
C         0.43428398240538    3.60769922984768    3.32782768750192
C         0.40240556499009    2.61715146736818    2.31146449866621
C         1.71985083729189    2.10415452293203    2.15309525340094
C         3.92689789234601    2.27570801865716    3.49081039378626
C         2.15011369065667    4.39044169960308    5.07964479057327
C        -0.73590868871433    4.05392448930201    4.16206815171732
C        -0.80008248946050    2.05117682054012    1.60596256673889
C         2.04959308413813    0.85817121847676    1.38008993494433
H         6.75686973743915    3.75337803648880    1.84684980296374
H         7.93783937905624    3.95194863326854    3.98978505576120
H         7.02521466236084    5.37680198438734    5.78845257365447
H         4.90475577667255    6.58787257313402    5.43423443410526
H         3.67717976802480    6.33963641342550    3.30422243351083
H         6.28161383995769    0.80160208357766    0.04941185079277
H         8.54210252622331    0.48237773992286   -0.88456198655795
H         9.70788139399459    2.37134602955333   -1.96139629544926
H         8.61721031887174    4.58057618433614   -2.08649966086642
H         6.35500503411076    4.89696639760193   -1.14355664223380
H         5.03372174277209    3.25913713784430   -4.32506341924575
H         5.96916282270339    1.32693024128589   -5.54244796645743
H         5.74017666214015   -0.94510834093388   -4.60774654180739
H         4.56819446181928   -1.28038662761940   -2.46396035993050
H         3.63174576179651    0.64821197755381   -1.25202905081267
H         0.09784898109504    2.29598903198169   -2.33214188263437
H         1.32323381324433    2.88984260729471   -3.48207656365062
H         1.56180985534838    1.34832604042582   -2.66748708595754
H         3.85640093189265    7.70156189599915    0.99860531300888
H         2.66672565622426    8.95408544886242    0.66434725781478
H         2.89106783013257    8.38403027635464    2.31576151479437
H        -0.36695343331065    7.06471282074599    3.76149393463944
H         1.38499908798711    7.22209281916956    3.94177660963139
H         0.45757690195747    8.47944063119272    3.13004090901791
H        -1.90626760506441    6.03343111829585    2.59102388387593
H        -2.33298218990893    6.41508874167851    0.92996136014115
H        -2.00707097490201    4.74651134175434    1.37544345677964
H        -1.39475601606993    6.13210384174704   -1.54387173087916
H        -0.04271493755357    5.18568158494165   -2.16868802997321
H        -1.16943530761804    4.46198677318901   -1.01459075778044
H         2.04488358134682    5.98852552806079   -2.24529627614855
H         2.00243969210813    7.72449738582549   -1.92337631702117
H         3.32821999265179    6.74650568367148   -1.28940818651479
H         3.80450498046977    1.30949060253082    3.98687099708629
H         4.60484261487234    2.12850487592226    2.64680775715925
H         4.40712383925485    2.95254946447161    4.19283407726377
H         1.76084751604718    3.79343387323050    5.90963066450302
H         3.22733350665114    4.46655106399062    5.20339651064568
H         1.71998820288373    5.38782034372135    5.17178889081597
H        -0.65306825882399    5.09160932352052    4.47725895951733
H        -1.68177378245812    3.91537044603778    3.64631384177195
H        -0.76659622973688    3.44596462645943    5.07157441472057
H        -1.72290855025045    2.50382326362958    1.96371616348571
H        -0.72165735985938    2.20653769667677    0.52590019321968
H        -0.86524581372443    0.97605133547894    1.78546304505787
H         1.60168378205797   -0.00960516237831    1.87255046911733
H         1.65285885260307    0.90621056033312    0.36485249604708
H         3.12557806322548    0.70012360459045    1.33690602653192

