49
CSD_code = PETXUK | q = 0 | S = 0 | Stoichiometry = C24H16BrF5N2Pd | MND = 4
Pd        7.59556740665518    5.54477927105769   12.19046691034057
Br        5.75498242946753    5.45298544890817   10.68754297696944
N         7.04377206657875    7.36434557618651   13.18616929045508
N         8.56390232947306    5.32616287498688   14.12927928033979
C         8.73251017455464    4.20353149801455   11.14189461467905
H         9.46340496091283    3.82712090486616   11.87424551617203
C         8.07110145469995    3.02147847246850   10.42843933702651
H         7.42437821409030    2.50335585191068   11.14457378521836
H         7.46088747871710    3.35300445785675    9.59020809115746
C         9.32869320622935    5.29363266710927   10.34323895518939
C        10.28365229787428    6.11735821647310   10.97446626091032
H        10.62847101485371    5.86271837288865   11.97414612303898
C        10.82615866370919    7.20985721599668   10.32505607360550
H        11.55703360739315    7.82539421181734   10.83084571527001
C        10.44351029791632    7.50997339504427    9.02740097867410
H        10.87139726902990    8.36063172510482    8.51848852756040
C         9.50910539846558    6.70948334629819    8.38958998240729
H         9.20499790800734    6.93821191039770    7.37921709849106
C         8.95293373041913    5.62045608204714    9.03226448562183
H         8.21462745939022    5.03085704279741    8.51189031687698
C         9.13651225942485    2.07478719402369    9.95710023755808
C         9.84328148811755    1.29021149240248   10.86582611406827
C        10.87142741261961    0.44166232893648   10.47871505327053
C        11.22349765832859    0.36122125844380    9.13513901852239
C        10.53542019252124    1.12985316040151    8.20272965680151
C         9.50847879241068    1.97111022686219    8.61988325404223
F         9.52335669424862    1.35466984369660   12.16916017209371
F        11.52194209677511   -0.29163424094400   11.38805927461791
F        12.21157023977703   -0.44773922549200    8.74646006282378
F        10.86203359556548    1.05587431377912    6.91019156588453
F         8.85802964037223    2.68384704031709    7.69613030574902
C         7.78423898900531    7.58510470684829   14.28673645141988
C         7.99560912696550    8.87268320253556   14.77425108630399
H         8.61640957562331    9.03056661360296   15.64210624791437
C         7.42438447729609    9.94528533584971   14.11252926604609
H         7.58017658205414   10.95190504084104   14.46947084673697
C         6.65337623295419    9.70291965418759   12.98461717128033
H         6.18599628659342   10.51004507224012   12.44437642236727
C         6.49259176586512    8.39608147180153   12.55535089362060
H         5.88685041358157    8.16076941439812   11.68659299215020
C         8.34062659947114    6.38502560459233   14.93000304169005
C         8.58246763801212    6.32531786990583   16.30107436361219
H         8.37457892349404    7.18095761437592   16.92360561536985
C         9.05836660167508    5.15122717253829   16.85532168963960
H         9.25020860195521    5.08373785240718   17.91509506416024
C         9.26850470637974    4.06074711416706   16.02314775064280
H         9.62847774167359    3.12202591185558   16.41163083392045
C         9.00602351149596    4.19460711523059   14.67106422553002
H         9.16187478717160    3.35819129793998   14.00040700219475

