147
CSD_code = PEVDIG | q = 0 | S = 0 | Stoichiometry = C64H78N4Zn | MND = 4
Zn        8.19791935233803   11.03289584231442    4.50549621648534
N         9.62877843811707   13.66977643808826    8.15084346518880
N         7.12224235311971   11.70741410805899    2.65912360026726
N        12.64816121436776   10.28329111548874    3.15803251890011
N         6.79580377376678    9.59422799427178    5.45660477626196
C         8.19954619299408   13.01247625919208    4.89216078462401
C         8.67866960846454   13.75768910688924    5.97306984337601
C         8.63162803609693   15.15621866051499    5.96628272723349
H         9.00659235727160   15.68863186730709    6.82790941996071
C         8.11720172297626   15.83514682409114    4.87727912817724
H         8.08754064989831   16.91505159298644    4.87541240829014
C         7.63948085324691   15.12585074565968    3.79084068946376
H         7.23310559828255   15.64721019141047    2.93414837903137
C         7.67810832476022   13.72863911501150    3.80437860873993
C         7.13765957306705   12.98451860746933    2.69193238002379
H         6.73572973933093   13.56733977697843    1.85725551511037
C         9.22221933393607   13.05467921007082    7.12378713814524
H         9.21842544545844   11.95496987519002    7.04272504212679
C        10.19698630423585   13.07665564448557    9.26142793904737
C         9.62033814694851   13.37253118819375   10.50939215155802
C        10.20247883010619   12.87327587691512   11.65985652844747
H         9.76601469568624   13.09447814288971   12.62188574383319
C        11.34188002279983   12.09100704429763   11.59368055347121
H        11.78441976353485   11.69907390793721   12.49777917476982
C        11.91617810634660   11.82198300681113   10.36778994590907
H        12.80993189946633   11.21726577119566   10.32752422047314
C        11.36850564056690   12.30456850564223    9.18682216768664
C        12.07177913940192   12.02714454216063    7.87726031983476
H        11.57300226324787   12.58319618587553    7.07630834906231
C        12.00780813596527   10.53798015231373    7.52978775835321
H        12.50888008077183   10.35188776903918    6.58232598942025
H        12.49282553958961    9.94180443411789    8.29924115415406
H        10.97566901732457   10.20326812053729    7.44052553787260
C        13.52711168487270   12.49925123207933    7.92602509199237
H        13.57448546969868   13.55623282940223    8.17960884053295
H        14.09761615450643   11.94375427935718    8.66566985014680
H        13.99530609471702   12.35212912709127    6.95569685643073
C         8.38262108325448   14.23888197070520   10.57585075004795
H         7.96685586915077   14.30802445520978    9.56515900936129
C         8.77314226969115   15.64903597283866   11.02557366329051
H         7.89726224835507   16.29407189082064   11.05609214208733
H         9.21967048072359   15.62214722313591   12.01724823533569
H         9.49662464627812   16.07415063943260   10.33424163290559
C         7.31208625047440   13.65708070926176   11.50043138604492
H         7.13252365032662   12.60887785654021   11.27033882203934
H         7.61192272517806   13.73223770175780   12.54262597124287
H         6.37853326015057   14.20334542776253   11.37985062927494
C         6.47208640306388   11.03832012878119    1.61744183777824
C         7.20401398639930   10.12525381584640    0.84025781003770
C         6.56529602018731    9.45737604262114   -0.19123678567908
H         7.12104116225775    8.77050574272300   -0.80907986551160
C         5.22254789590898    9.66680091004786   -0.44680722493459
H         4.73745205884206    9.14572020284987   -1.25859897504053
C         4.50234497640551   10.54138208564615    0.34197091136547
H         3.45214867455980   10.68924112893279    0.14187369618287
C         5.10228608708704   11.24248821442446    1.38026157385357
C         4.25245867105054   12.15829307789974    2.23357745011724
H         4.85696578553784   12.54703250787213    3.05960177827901
C         3.08046766698802   11.39600773503439    2.85530600780851
H         2.53668934913062   12.04551971469516    3.53790660464659
H         2.38795615345547   11.04508827061653    2.09464947495199
H         3.44260169050726   10.53948262218103    3.41736777469697
C         3.74108467546883   13.34644995749061    1.41374370815066
H         3.17380793234745   14.02281761742391    2.04962448483965
H         4.56628958561843   13.90085502782440    0.97088986339835
H         3.09353361653808   13.00749292030068    0.60874927543986
C         8.67974817975366    9.94678926563523    1.09897561358916
H         8.84746790047197   10.13754825715823    2.16437365264017
C         9.47578543855077   10.98311933543324    0.29917686840334
H        10.53863071972125   10.89846411265183    0.51807632878405
H         9.32816704009164   10.83315597419966   -0.76881624070958
H         9.15508401134595   11.99257105839571    0.55055735823668
C         9.18632960949882    8.53632311852326    0.80635185384459
H        10.18484347031055    8.41746775835467    1.22227524338746
H         8.53574590197025    7.79500706832828    1.26496902974183
H         9.24182803543200    8.34358385119947   -0.26260128015557
C         9.48884031846005    9.49847559891447    4.73444570981444
C         8.91502728815997    8.50220035897407    5.53872714145379
C         9.65445454473195    7.40573633113392    5.99214720609511
H         9.18327174500300    6.65644120542634    6.61466810937612
C        10.98628666636265    7.28549359413949    5.64058392032008
H        11.56377325542240    6.44145889509881    5.98848474418835
C        11.57415898490324    8.24434537253728    4.83614028423190
H        12.60928850653340    8.16105068281539    4.53978077127158
C        10.83502644080657    9.34514177849357    4.39101220350959
C        11.43813948190843   10.34123325939939    3.52278956024930
H        10.74395207383574   11.11775664939120    3.16814975953942
C         7.50800361909417    8.60609374869954    5.84323290060524
H         7.06104754556980    7.78879071787574    6.41806356195585
C        13.25379473714410   11.19262539478158    2.31166889755047
C        13.25341669835892   12.58090475058372    2.53483873337065
C        13.93643583355139   13.39121277896162    1.63811222336275
H        13.93866906695025   14.46048351384518    1.78793435462963
C        14.60307017615197   12.86547796957279    0.54914176586755
H        15.11343142113238   13.52060499659168   -0.14166566018519
C        14.62010881824014   11.49671702252134    0.35138950320587
H        15.15006754627074   11.08801514230951   -0.49589461576814
C        13.96428798243169   10.64927509976218    1.22576713300908
C        13.96436886047362    9.15462558168399    1.00109728776133
H        13.44397607526721    8.69407835124908    1.84690976008617
C        15.39068036553923    8.60439702799540    0.95904680756377
H        15.92630874171927    8.87870128757235    1.86491088546293
H        15.37087064457419    7.51906359219350    0.88270618351508
H        15.93750990899311    8.99577952748209    0.10473092907407
C        13.20872274289799    8.79931492088909   -0.28126225034809
H        12.19350487462051    9.18823467275160   -0.24637834422720
H        13.70641657474958    9.22183607753093   -1.15121495535351
H        13.16031963395458    7.71905353801433   -0.40344452326423
C        12.57073711094035   13.21275442517599    3.72754293600498
H        12.23247398414365   12.42377673236375    4.40754670161685
C        11.34763888940990   14.01968522507274    3.28246234806407
H        10.85235127928720   14.45966648265729    4.14537570015429
H        11.64358542464801   14.81969834993798    2.60732537030975
H        10.62914381671585   13.38739753928465    2.76328621235386
C        13.53306267544690   14.10980503104329    4.51033537905670
H        13.06098787332545   14.43952845609363    5.43323913928096
H        14.44288637431264   13.56724305936511    4.75805484528150
H        13.80674767217145   14.99171133365549    3.93698854464679
C         5.40882401214355    9.57245483243744    5.63851219308296
C         4.63386640967664    8.56580498830113    5.03693276104109
C         3.26018991604271    8.58201157868103    5.23938811618878
H         2.65007150839746    7.81340901878619    4.78966894503480
C         2.65755973996926    9.55614819313606    6.01129673746278
H         1.58957693158677    9.53761893800344    6.16911703811765
C         3.42671806244243   10.55824090456802    6.57123735350274
H         2.95162987515170   11.32219441203100    7.16715861535625
C         4.80048935610479   10.58820096162188    6.38961479558908
C         5.62776638798871   11.67191023893555    7.03811168217978
H         6.65965041783624   11.57356364603648    6.68795423756686
C         5.63500637055709   11.51079569013633    8.55916181797692
H         6.27666559767313   12.26570877394356    9.00669056145565
H         4.63258287232902   11.62101142379561    8.96682566739178
H         6.01200323359160   10.52830572166697    8.83710102042370
C         5.13557303174298   13.06384757261398    6.64094985867330
H         5.81623355333854   13.82023358971938    7.02581687246392
H         5.10181094565162   13.15678258782983    5.55755032722695
H         4.14283800110948   13.26202349971390    7.03712718494053
C         5.23194021603098    7.50324904228900    4.14060083895631
H         6.31014146592543    7.66832383089377    4.04894205948667
C         4.64286489628105    7.59351739796938    2.73052084246423
H         5.11625262644152    6.85885607032698    2.08260879822790
H         3.57251145508387    7.40398278625521    2.73608919346242
H         4.81776332014216    8.58076698617994    2.31007700795673
C         5.01467132249179    6.10598308109682    4.72778649214342
H         5.42774877911421    6.03886976970877    5.73242114591392
H         3.95511779425962    5.86858893610947    4.78171769682368
H         5.50191088717349    5.35898299103699    4.10480208976277

