123
CSD_code = PEVHAC | q = 1 | S = 0 | Stoichiometry = C63H51ClFeN3P4(1+) | MND = 5
Fe        9.38233794938662   10.61147990400038    6.65738955071516
Cl       11.10565890580023   10.36354386027096    5.46002711265391
P         7.55028757709223   10.76077543270663    7.72574243773191
P        10.35507933215859   11.51613932857191    8.38564856233210
P         8.43399567620470    8.89882231084232    5.68264501599253
P         8.70479200636793   12.28602672693722    5.50134435115199
N         9.16632524031353   11.73413767693270    9.59258969847091
N         7.10878502759682    8.40877253932808    6.64735686590864
N         7.08591026048275   12.63398151685938    5.88602154364929
C         6.12747498684531   13.32275773655985    5.16538746767814
C         7.79866910036708   11.56674047283507    9.30787151690434
C         9.58019127958769   13.86576347625927    5.67520248072366
C         7.94861150416124   12.64933005963326   11.26719296553574
C         9.25690681322118   12.39546115642245   10.80064971335744
C         6.40673337545841   11.76477747765617    6.76172083264724
C         6.79981394513447    9.13341618602153    7.81667747913880
C         7.03426972971933   12.12839079019785   10.29773174521964
C        10.96349711629702   13.86068291055826    5.49901958517022
H        11.47810735957594   12.92180011439725    5.34544262411423
C        10.08132249949643    6.57032777696363    5.29520055814043
H         9.75196969569796    6.51205336875842    4.26772533991585
C         5.05209664163786   11.89939176003353    6.61289584703761
C         9.61260162420381    7.57689134769156    6.12701702120187
C         7.95085050750071    8.55388983356561    3.98036145905395
C        11.47947114484028   10.29314822235801    9.14449093750669
C         8.92208076935534   15.05966605377578    5.95608913775854
H         7.85856897446500   15.06803862963613    6.14414832845915
C         6.58482705836829    7.13855751734845    6.80617968864970
C        11.25051927916100   13.09436768433688    8.55254701964293
C         6.08720499089471    8.35712560582560    8.68929266601627
C        10.48960795096108   14.25083597769367    8.71739236311909
H         9.40902417958237   14.19178787381366    8.73330596340868
C         4.85472666416543   12.90543270951982    5.61057824168418
C         6.63665829278211    8.30337673124788    3.59888153080263
H         5.84723274076388    8.29975338301487    4.33773458374641
C         8.59280462360703   12.05377931143868    3.69719997384033
C        12.60599082333234    9.89078697584144    8.42809491496035
H        12.77513015702412   10.27086213099337    7.42993903703017
C         5.91962187965227    7.08514548968139    8.05030146767369
C         6.26966725570678   14.26243569410869    4.15242269500705
H         7.24625888072137   14.55928436081991    3.79932703188672
C        11.22188541879030    9.73558040483240   10.39437464594658
H        10.33436409251317   10.00826656285336   10.94707768316398
C        10.05334138810065    7.64936362050019    7.44902854534804
H         9.66939304470134    8.43863381822458    8.10068195170666
C        12.63646949823456   13.18238969709153    8.50355121585925
H        13.23550248112109   12.29370356684497    8.37274464009712
C         7.43279821738048   11.49746854801528    3.16025443579527
H         6.61762407586447   11.20002905433619    3.80617284361890
C         7.75857646154003   13.30410112315923   12.48557343428858
H         6.76240953477618   13.49867143704760   12.85104775201219
C         6.64935869627697    6.03123239608343    5.97197455393617
H         7.17608669197367    6.06966492658765    5.03091135060667
C         5.11884291530277   14.79277060208319    3.60846793581058
H         5.19671165622327   15.52439643012573    2.81932652602890
C        10.98003347161832    5.64130201474296    5.79182247492702
H        11.34502048704677    4.85677721813013    5.14645693307922
C        11.66931239771634   15.04801593578051    5.53590711500115
H        12.73812490168738   15.04297479657959    5.38554473585353
C         8.96478440761807    8.60614658080726    3.02440720666912
H         9.97364935183471    8.85230468792605    3.32894300888259
C         9.63830605784235   16.24240042544062    5.99639970403768
H         9.12414810881281   17.16947792691169    6.20136481125511
C        13.49115432255810    8.98399364565259    8.98114040344682
H        14.36568519391336    8.68257152460605    8.42485949105190
C         5.59333267077519    8.70594437299759   10.04660396682143
H         6.09133622062507    9.59779336565781   10.41507157952452
H         5.78821881127992    7.88090272609551   10.72949619873170
H         4.51659845322271    8.87834253032077   10.03597227245386
C        12.49565048481487   15.55540981916864    8.84118016124052
H        12.98185128910328   16.51046032421350    8.96741567756937
C        12.11170813039273    8.82645749495110   10.93852035085487
H        11.91231469155937    8.40514788479301   11.91261695054224
C        10.37353594616769   12.77264094138022   11.53689282709458
H        11.37228880916865   12.56099456781536   11.18581503240077
C        10.94756107994988    6.71987848394310    7.93917161097609
H        11.28232246432317    6.77912966608859    8.96371449517151
C         5.55519642545875   12.23333650686104   10.37258055388858
H         5.09909971422179   11.73979540372872    9.52133748162301
H         5.26285190654775   13.28342602153288   10.37271503921056
H         5.18248815211078   11.78773114710870   11.29437142752493
C         3.70535053720967   13.46188874619457    5.04774051174496
H         2.72785958892810   13.15873768482310    5.38896681039210
C        13.25282625340770   14.41274590579851    8.64810311999643
H        14.33018219258215   14.47554986359944    8.61932524151806
C         3.85339425905873   14.40262497034164    4.05424996559562
H         2.97951886830919   14.84760429037500    3.60416354991572
C        11.41223458565603    5.71397498366437    7.10548448990957
H        12.11389583172818    4.98609663056574    7.48277265004652
C         5.28222789434259    5.90951143165294    8.44758864851494
H         4.75825449802873    5.86292269391248    9.38944462277183
C        10.15930999371919   13.41903684322081   12.73500750364676
H        11.00707826155553   13.72468026202795   13.32832329250540
C         9.64625066062638   12.39471576448705    2.85583425799719
H        10.55367884339079   12.81075589842497    3.26580115239147
C        11.11261053390314   15.47258407744428    8.87291509128357
H        10.51872709081741   16.36131861491455    9.02243724800376
C         7.31041865956549   11.33852535259620    1.79359052915075
H         6.39731365602332   10.93580707311987    1.38262098679851
C         3.95559247638237   11.13988751916171    7.26994139033586
H         4.35325119234942   10.33132139720531    7.87768105524981
H         3.30160775737883   10.71541575461677    6.50841504422223
H         3.34869864542357   11.79807583595723    7.89170462174424
C         6.02034373317303    4.87774521902322    6.39164412639351
H         6.05591175786668    3.99972280233499    5.76548677534050
C        11.00517726265807   16.24126454448464    5.77160075715159
H        11.55526692195983   17.16952354660258    5.79258056048685
C        13.25103101860718    8.45872707530352   10.24091826830720
H        13.94385462539851    7.75291975432074   10.67336636548068
C         8.86890233709152   13.68428127317526   13.20273266100505
H         8.74873487631489   14.19148701176694   14.14745336058927
C         5.33929879879155    4.81923938600494    7.60966348985938
H         4.85525660445829    3.89831331436787    7.89560215811164
C         8.66945202671934    8.35202333227243    1.69904843312576
H         9.45390958567691    8.38007861680191    0.95828007275747
C         6.35308246752013    8.04667769452458    2.26989490928954
H         5.33756989705197    7.83352433791238    1.97122926156862
C         8.35594867296694   11.69292127044488    0.95679775357526
H         8.25859026624414   11.56658843105006   -0.11054504198086
C         9.52544135891499   12.20818803752445    1.49070738788414
H        10.34513054265213   12.47620448497262    0.84153194779271
C         7.36664519805466    8.06056289433953    1.32431923530470
H         7.13874782480841    7.85175906210272    0.29017935458514

