124
CSD_code = PEVJEI | q = 0 | S = 0 | Stoichiometry = C63H51FeN5P4 | MND = 5
Fe        8.54270645242434    5.19691985458216   12.35620966537232
P         9.44575662713380    4.87058871436369   14.23231994448770
P         9.17949802066224    3.22350013795437   11.87678873213675
P         6.73613414597520    5.48070309913812   13.44490454030937
P         9.90678024785106    6.81769493952049   12.15061784098372
N         6.95459302391864    5.04586468688931   15.08615932613109
N        10.22285706991747    2.62108495215367   13.09314196435352
N         7.82283527344144    5.45606338277483   10.86479543279874
N        10.73065176201524    7.09420988648600   13.62565373622073
C        10.26403768788512    2.95420448787695   10.42754427777349
N         7.33936838038864    5.62825489449640    9.86215835670912
C         6.03185004411709    4.70165719446393   16.04500684652094
C         9.30746982244466    9.17595150985270   10.65828246480479
H         9.79724667838371    8.72357144341258    9.80758332638226
C         8.07361859660059    3.87340656246460   16.68259851656813
C        10.88049362456354    6.49021003843106    9.61959215162895
H         9.83036069249586    6.35889777482985    9.38969447162290
C         9.84297305011611    2.40290308187771    9.22432081680265
H         8.82943392559128    2.04348971512490    9.11582669326518
C         9.26313282925699    8.50866758058625   11.87559172736388
C        11.69184026873214    2.99261025648784   14.79017456195781
C         8.19718992957003    4.53712469848102   15.48962315801065
C         7.96662413071863    1.87957731130949   11.68204022971807
C        11.26217757828781    6.73989580788496   10.93731226688993
C         5.98302446141404    3.52150589273859   18.16899471527018
H         6.48390189226881    2.97813929490435   18.95627650217329
C        11.57175582779529    3.41928133433017   10.54968284997354
H        11.89146481216960    3.88005987443370   11.47731120764604
C         5.38253350233432    3.09398306761812   13.45606169097894
H         6.27042965103554    2.74891419699701   13.97323850340160
C         6.69844887483851    3.98345751088735   17.06387395225703
C        10.56586609717465    3.45948442166600   14.16316326660949
C         4.66694372333805    4.95375025623058   16.11245732401735
H         4.16211220189655    5.49711892415373   15.32766163356657
C         8.73750184620306   10.43169546101751   10.54087334361101
H         8.77551674168059   10.94810955156836    9.59230593485177
C        12.06776153638601    1.79479717828509   14.10274914760725
C         5.28610457609829    4.42934205430727   13.07028809937597
C        10.39309833728533    6.31716758580923   14.74269297074210
C        11.39006181940468    8.21173030465598   14.07922739092292
C         5.97125872549236    7.12912199278329   13.56139652157896
C         9.10841360572208    3.12437893362211   17.44609559906310
H        10.04543817544250    3.10834138075405   16.89893129575472
H         8.77483858997842    2.09818874607139   17.60336773752610
H         9.27004351780474    3.57266128629735   18.42746829245030
C        10.73063161981145    2.29815524493446    8.16759977996172
H        10.39939429796257    1.86722528053472    7.23353118498356
C        11.83219080678218    6.39243086525284    8.62422630290941
H        11.52933424199309    6.20947811423305    7.60348979471009
C        12.03759784008326    2.73294377988096    8.30491212348166
H        12.72845743380954    2.63807022748520    7.47996925554196
C        11.14620564994773    1.60383569447289   13.04799751201375
C         6.95420667173378    2.10833709634040   10.75086938625441
H         6.93891113344855    3.04437301650960   10.20638624305718
C        12.61267185044676    6.82185485155641   11.25652530488063
H        12.92457701443140    6.96704819714109   12.28133774211669
C         7.94442685898152    0.72013913881671   12.44865385123258
H         8.69558489375085    0.55188525970768   13.20764569944890
C         5.73121328950488    7.80517239584882   14.75208707004613
H         5.97900113743127    7.34837444848704   15.69998883383732
C        11.48042303024258    8.13189806124992   15.48770280335513
C        10.82308730239073    6.92669106295970   15.89261738612841
C         4.16707085264874    4.86053750147425   12.36955543081836
H         4.08355121950632    5.89275694332445   12.06011826419019
C        11.25949460344778    0.52895807860628   12.17461860354635
H        10.55672563147248    0.39255935538933   11.36622191779563
C        12.45869034340491    3.29267915013997    9.50076471859191
H        13.47690375734711    3.63531544470669    9.61261086368726
C         4.63239639350931    3.77786450511520   18.22923678262308
H         4.05779842170862    3.43004899915329   19.07513195330425
C         3.98293188584887    4.48232956163079   17.21197354670464
H         2.92073909675592    4.66046786067536   17.29036738159496
C        12.44801815011107    3.59390360148502   15.92222810688235
H        12.01320142744583    4.54715613983337   16.20475415025914
H        13.48475668632168    3.75415949327670   15.62457408973896
H        12.45220461784963    2.92789643958399   16.78625675226074
C        12.64159131675636   10.21046751584576   15.50098185985157
H        13.14091132545698   11.00794409061299   16.03144406527949
C         8.62185069636045    9.10191278476044   12.96102702056630
H         8.55711243820383    8.56766558255320   13.90196854945156
C         5.70283408211553    7.75862752549196   12.34647715846564
H         5.95652062553711    7.25366228823836   11.42258131293780
C        13.21305126631968   -0.17749678388369   13.41932841468279
H        14.01174795288703   -0.89421549168796   13.54211527648598
C         4.35502794321214    2.21370144349686   13.18699013805112
H         4.42869481795078    1.18569260910708   13.51016030898523
C        12.11915664465836    9.14692538165392   16.20062722891373
H        12.20036806417269    9.09191316670261   17.27594837084260
C        13.11030496658744    0.88603987684094   14.28643338874683
H        13.81514739376182    1.01854167459844   15.09363936801440
C        13.17614349672683    6.51602400014104    8.94097129258822
H        13.92290321685488    6.44130774568531    8.16382610007689
C        12.30084852378218   -0.35110036421525   12.37499467008143
H        12.41579073124041   -1.19451356554120   11.71048383077475
C        13.56255666180256    6.71414983255179   10.25586316830454
H        14.61174202787541    6.78617193310967   10.50604908093022
C         8.12974475685907   11.02982729584320   11.63127256389115
H         7.69678617305548   12.01486303551152   11.53600451616093
C         3.14877915754165    3.96818793169687   12.08275190295508
H         2.27923927354512    4.30815434270153   11.53848386479443
C         5.17405787274401    9.07162359348284   14.72238767908002
H         4.98137274062775    9.59172580400465   15.65025123509973
C         6.95288305084659   -0.22239027673328   12.23968855797735
H         6.94281765096770   -1.12665313377596   12.83195059212915
C         5.97271744628405    1.16043885027322   10.54055288334705
H         5.19712449091388    1.33900318477571    9.81003062804005
C         8.07453627951798   10.36283471522417   12.84483097330364
H         7.59954341586627   10.82401853831585   13.69828109529458
C         3.23552772891079    2.65003879931229   12.49634155473199
H         2.43229200601519    1.96125400361899   12.27904490428615
C         5.97823506336277   -0.01308295038742   11.27856174367960
H         5.21220145913815   -0.75715192959452   11.11499743748545
C        10.62580186973264    6.49976140243964   17.30455953325157
H        10.03254433580846    5.59205426292116   17.34640875649184
H        10.10643527845098    7.28515194935687   17.85473090564117
H        11.58374977491181    6.32952539792934   17.79786249264747
C        12.53825609430835   10.28265373098036   14.10922018847255
H        12.95497568075399   11.13528788089764   13.59395533271885
C        11.91705142436568    9.29136371841426   13.38087357190634
H        11.83795958814205    9.35044215833302   12.30557945057631
C         4.86273498179569    9.67225963004986   13.51415966748007
H         4.41983786192037   10.65755148515023   13.49896125910812
C         5.13847119401370    9.01839881330508   12.32325195709175
H         4.92287261895655    9.49630944950068   11.37868228417234

