69
CSD_code = PEVSUH | q = 0 | S = 0 | Stoichiometry = C36H30F2Ti | MND = 12
Ti       10.97568714965166    0.89423857185963   19.54923127440728
F        10.90283307007193   -0.33454556590907   20.80314383746357
C         8.98121041945317    1.57825365487379   20.60540275110978
C         9.52176178042371    2.70447248957669   19.94951890790991
H         9.76908808587961    3.64934507842764   20.41604873723883
C         9.48283138440846    2.46404552452623   18.55285331896853
H         9.70174858745014    3.18822354399057   17.77875485250271
C         8.89462842506847    1.20415846763765   18.34714506577338
H         8.65558679660725    0.76007410199316   17.39107754986268
C         8.60927535664690    0.64184532510436   19.60749429440679
H         8.11237043111096   -0.30361766688224   19.78615862611803
C         8.70296572879028    1.41938766649129   22.07917553757673
H         8.76990298299037    0.34926383081077   22.31787229740184
C         9.74527814894351    2.15158698495049   22.89708833800324
C        10.84673598756507    1.46827841832391   23.39833931184659
H        10.94065373417877    0.40547096592415   23.22300212115206
C        11.81577293669674    2.13763712984946   24.12677970276292
H        12.66543183650617    1.59678775292674   24.51764866239990
C        11.69585127636754    3.49699289011986   24.36133805868694
H        12.45168536799592    4.01921714094150   24.92927150931262
C        10.59710914549072    4.18295337908138   23.87110631762305
H        10.49374341041741    5.24219891761843   24.05790852855178
C         9.62627873777343    3.51447068594035   23.14607468593072
H         8.76187196908469    4.05074145348281   22.78040859426581
C         7.31086990064062    1.88869063265579   22.45864696355440
C         6.85608730587311    1.63468469136477   23.74818438743274
H         7.49556184662638    1.10497303953749   24.44024160352821
C         5.60230395822657    2.05524942662366   24.14944468115375
H         5.26189350592437    1.85003348817763   25.15388809546639
C         4.78318904223871    2.73707680705387   23.26446882875290
H         3.80252507167865    3.06542902437494   23.57574792066595
C         5.22837443460828    2.99346350708984   21.98010805857500
H         4.59480570893396    3.52423967697286   21.28429169240335
C         6.48562843971692    2.57342045830107   21.57840724158267
H         6.82300576780664    2.77743161627718   20.57253761960144
F        11.04730523011605   -0.33369494493043   18.29446279218264
C        12.97095983558880    1.57651733333318   18.49323156287178
C        12.43170947178539    2.70297285041882   19.14982449489313
H        12.18546124281373    3.64840321734311   18.68386551545368
C        12.47020057883229    2.46165683153352   20.54633268267619
H        12.25197085918318    3.18557923467466   21.32087975615282
C        13.05732414256901    1.20112303079337   20.75121850674867
H        13.29591288928589    0.75625051863381   21.70702141414652
C        13.34184525304679    0.63909770421382   19.49055042794856
H        13.83763153067001   -0.30684724761100   19.31127592051414
C        13.24883263819647    1.41812625422424   17.01933193164204
H        13.18097224419949    0.34817896203072   16.78013266155506
C        12.20690914267616    2.15160510819358   16.20205441387737
C        11.10496889871973    1.46942983670771   15.70033854351659
H        11.01042817284815    0.40652545373710   15.87473089314771
C        10.13628333032168    2.14005189557970   14.97256573058493
H         9.28626240173428    1.60004563770433   14.58131018663638
C        10.25705353120243    3.49952202450370   14.73916574887431
H         9.50142003367424    4.02273863025521   14.17188444087626
C        11.35635713024701    4.18434850601408   15.22977463938151
H        11.46033770970537    5.24368358332887   15.04383696770238
C        12.32683385954617    3.51461209347126   15.95410736168674
H        13.19168501926852    4.04999747559832   16.32003086197768
C        14.64115281065622    1.88653338795298   16.63958735316524
C        15.09515517790257    1.63292434524489   15.34968929662698
H        14.45518515104890    1.10359852077484   14.65779654464783
C        16.34888224297666    2.05319333481798   14.94793911820291
H        16.68884457875733    1.84790888712681   13.94336520126964
C        17.16877697329464    2.73418947260006   15.83284161946721
H        18.14942291596936    3.06226230060979   15.52120453883732
C        16.72438796436002    2.99014631758571   17.11757067655193
H        17.35846822289611    3.52049355677471   17.81324829270939
C        15.46714686191768    2.57048390679969   17.51972838921841
H        15.13026422213825    2.77436886985367   18.52579154023030

