69
CSD_code = PEVTIW | q = 0 | S = 0 | Stoichiometry = C36H30Cl2Ti | MND = 12
Ti       -2.96732906736200    9.38183633334489    5.58094804609086
Cl       -2.17706040616860    8.33741349364573    3.76430181599693
Cl       -2.04308373691111   11.24996727414796    4.76206894089134
C        -1.81115292552910    7.67400156768551    6.71459861830632
C        -0.88201577666306    8.71674818615425    6.45395050274098
H         0.02554775028848    8.61885571628159    5.86970820869936
C        -1.27209968129858    9.85171012612570    7.19293380608725
H        -0.71543716783755   10.77569027696329    7.27548808615639
C        -2.45870730168731    9.53708983387575    7.88320426351883
H        -2.93968625383105   10.16474035226288    8.62133586997591
C        -2.77687201675962    8.18577024266943    7.60645095083293
H        -3.54989129226616    7.61012347942551    8.09639814954798
C        -1.66055497735972    6.24535575415785    6.26042600494199
H        -1.21366570366791    6.25354418286062    5.25754867555328
C        -3.01256256943721    5.56750789301448    6.17150166839322
C        -3.61609921073064    5.03429603709433    7.30500373445815
H        -3.09974274860432    5.07288111283227    8.25391756893865
C        -4.86382220349531    4.44122703138219    7.22262126797417
H        -5.32249003912680    4.03049889770633    8.11045659611799
C        -5.52127548207689    4.36837808201835    6.00581851594635
H        -6.49403665947273    3.90344430692576    5.94237432320837
C        -4.92119142382905    4.88670387659963    4.87066048656116
H        -5.42471163666714    4.82279147013513    3.91707651651114
C        -3.67385657658922    5.48281228326459    4.95219810670351
H        -3.20669487304429    5.88321679108962    4.06368761505017
C        -0.73942887678673    5.45202191600367    7.16910185445230
C        -0.33177717436376    4.18943226718569    6.75274105941105
H        -0.66332206016347    3.81571897995334    5.79443722617099
C         0.48544265594031    3.41331345224485    7.55249959233101
H         0.79457191803730    2.43466482949984    7.21596907143121
C         0.90821070756137    3.89023441002986    8.78241630558700
H         1.54762021404160    3.28568016432535    9.40841083621572
C         0.50712994938075    5.14528352247943    9.20330526406113
H         0.83267529841322    5.52416234886366   10.16119336938066
C        -0.31391515079153    5.92246830758356    8.40297005862272
H        -0.62040413534013    6.90116728027987    8.74344725278687
C        -4.90708013933246   10.71397131483454    5.64744014736794
C        -4.81586770896350   10.15718152077782    4.34352243533519
H        -4.74427427863630   10.72274006597479    3.42175633352411
C        -4.97155097466474    8.76016559435420    4.44732955857788
H        -5.04145782375155    8.06751221978086    3.61922508951788
C        -5.12118642580052    8.43722597011277    5.80993404772827
H        -5.37212654856765    7.45942290796169    6.19849044853568
C        -5.10507411067174    9.64566327362638    6.54702161422218
H        -5.33596844672483    9.74249050093431    7.59884405718720
C        -4.97162104786849   12.18659139088304    5.95894944734490
H        -4.31008954649607   12.71145314759727    5.25715348000387
C        -4.48018795444433   12.45681422066554    7.36634753804587
C        -3.16585300347633   12.85193209216472    7.58455300435017
H        -2.50317694695503   12.98738380921195    6.74162499474035
C        -2.70514347769436   13.07588499740591    8.87116908815873
H        -1.68264260141816   13.38652753232008    9.02910445922902
C        -3.55217848229484   12.90816166098784    9.95362960294719
H        -3.19312016860069   13.08333726869752   10.95704392772456
C        -4.86562108733966   12.52276311255072    9.74279250966655
H        -5.53419590598060   12.39893402880897   10.58242328081882
C        -5.32796107441374   12.30091384165151    8.45735864675743
H        -6.35860580936437   12.01688095396426    8.29721525665900
C        -6.37126364591402   12.74569291991343    5.77908937763114
C        -7.48512566779978   11.93856659077844    5.59861447452609
H        -7.37413652490368   10.86439646693190    5.56016868026632
C        -8.74337622895018   12.50175250394312    5.46321653836661
H        -9.60212310178289   11.86190008843429    5.32141431021439
C        -8.90317595341241   13.87478568021190    5.51059798378511
H        -9.88520499951693   14.31162517340148    5.40584122958241
C        -7.79571744925731   14.68666716386300    5.69265520578693
H        -7.91157968111809   15.75985393801658    5.73038703799616
C        -6.53991412588795   14.12522305903661    5.82525248133534
H        -5.67671042379734   14.75913291009178    5.96986348240690

