81
CSD_code = PEVVAQ | q = 0 | S = 0 | Stoichiometry = C40H38Br2Ti | MND = 12
Br       13.03198123545059    5.48293851630157    4.78982461776981
Br       11.78859328956655    7.25392221853452    7.44133893649102
Ti       10.77314430833405    5.78525695946755    5.72093638381744
C        10.65077591907657    3.42824326315151    5.73782244702014
C         9.34964709996662    3.93977648872525    5.93291592161089
H         8.48800628276593    3.72820416604561    5.31641546624896
C         9.32307434445958    4.62907914417774    7.16844434766668
H         8.44438731307977    5.04224561575168    7.64911620303047
C        10.58730678889968    4.47777787895163    7.77408842111405
H        10.85651544647542    4.79751207166875    8.77210795245048
C        11.41459414998310    3.77140626864866    6.88691905208939
H        12.43141726292479    3.45201181108862    7.08489177139573
C        11.11588776606955    2.49649860144828    4.64875999636165
H        12.19355700594886    2.65127142501989    4.49841286429129
C        10.40713448576565    2.78757399251171    3.34172799446516
C         9.12344032960687    2.30983841385694    3.10561843865056
H         8.64006756402806    1.68627469221758    3.84491299482522
C         8.46614237798164    2.61076043529215    1.92609238816783
H         7.46731453290995    2.23110672179868    1.76147307355232
C         9.07337981756960    3.38984159872453    0.94941057422905
C        10.36493992550214    3.84839013227295    1.18050946732093
H        10.86054216371850    4.44360300359154    0.42669438414777
C        11.02606943129197    3.55040904468540    2.35844504493676
H        12.03687938336398    3.90489854733298    2.50774656574352
C         8.37278448640853    3.70835649282246   -0.33592595207477
H         8.77667716298890    3.09471029954918   -1.14140475519861
H         8.52100052588757    4.75204171521515   -0.60692130912973
H         7.30624648549958    3.51069869218776   -0.25989224747805
C        10.91643869245693    1.03969343537254    5.02789367719038
C        11.51919424732221    0.06654318992316    4.23970556459038
H        12.12743389711490    0.36749576401304    3.39859083642034
C        11.34429192764954   -1.27479235874971    4.51774132930859
H        11.82155810585746   -2.01581804698836    3.89254636427743
C        10.56264927678623   -1.68384894989523    5.59139386216870
C         9.96423475164416   -0.70887303363203    6.37741912306947
H         9.35261568302290   -1.00437729218785    7.21831436289097
C        10.13556027432305    0.63607907258714    6.10063866833514
H         9.65589047433753    1.37046972892091    6.73202967222226
C        10.38819758846119   -3.13761795419455    5.90892827694780
H        10.54715879014662   -3.75030385940969    5.02470436113394
H         9.39191175989348   -3.33234882676087    6.30029383725588
H        11.11123457278932   -3.44237916412894    6.66640546534141
C        10.62297509812256    7.76228006684900    4.41172388669893
C        10.41084377131939    6.65605275691064    3.55269712397172
H        10.99984402216763    6.42205139056873    2.67571709128720
C         9.22418409188676    6.00802339020667    3.94458187633606
H         8.73541581606601    5.21886116896316    3.38982790261826
C         8.69427014982481    6.70716403407418    5.05386602940890
H         7.72850872111437    6.53306340067144    5.51150211023407
C         9.55433527992394    7.78298727444481    5.34305227714816
H         9.38175161657447    8.55421362392603    6.08354993916114
C        11.74654194970284    8.75956335508582    4.30330924894421
H        12.59070848040868    8.42136325892238    4.92204774788062
C        12.25962774596756    8.87289714466499    2.88186071265776
C        11.39533466477817    9.05616166094727    1.81003200834463
H        10.32840302973753    9.09260623779288    1.97575570896390
C        11.88536417689651    9.17868578515816    0.52346572743251
H        11.19627988012853    9.31830555307041   -0.29800102522484
C        13.25003238114322    9.12302389391941    0.27073360208582
C        14.11048692049174    8.93422964229744    1.34401588673496
H        15.17530568484713    8.87850734853457    1.17004572152604
C        13.62342799891588    8.81045428268440    2.63194514685301
H        14.31111842107426    8.65014618677622    3.44911330106551
C        13.78108820416400    9.28329193026841   -1.12151044472287
H        14.71582130152099    8.74116467523966   -1.24448951220729
H        13.97354981586288   10.33727575800312   -1.32597499430955
H        13.06382105509034    8.92442991207359   -1.85642013590064
C        11.34593090622366   10.12884299164316    4.81267278120144
C        12.19453254611319   10.82266956531196    5.66487647520145
H        13.11924945282693   10.36709310360514    5.98683796675771
C        11.85958726876549   12.08362084307394    6.11960943435748
H        12.53016042933805   12.60560015285831    6.78679009046803
C        10.66879124906408   12.68801745953048    5.73630790736943
C         9.82056646786140   11.98998260106469    4.88780147462812
H         8.88531110776990   12.43755138399057    4.58113325762383
C        10.15288840037155   10.72774461825843    4.43106798475777
H         9.46764843608998   10.20333798389766    3.78070171291357
C        10.32347765620832   14.06396924429609    6.21939020268907
H        10.88594838649149   14.80887328286453    5.65562813700912
H        10.58014195692960   14.17820547032513    7.27064375006976
H         9.26344853083571   14.26911765139138    6.09040544326840

