69
CSD_code = PEVVIY | q = 0 | S = 0 | Stoichiometry = C36H30I2Ti | MND = 12
I        12.46976608106216    2.03556591481756    2.04833408831581
Ti       12.88380600971417    3.98977161468615    3.94980037176133
C        10.54971623846010    3.77189106236999    4.45463988571043
C        10.68114203145459    4.54476582585977    3.27280828787761
H        10.23137665106210    4.31077999630616    2.31544700285483
C        11.33865354342955    5.74681610396008    3.59757323896234
H        11.44107610771457    6.60072920763825    2.94078021755348
C        11.63216640872445    5.72277628236537    4.98020085325827
H        12.00021555919842    6.55326907870404    5.56851817390351
C        11.14811750751250    4.50961644785977    5.50534128191305
H        11.12346245561999    4.24288359160675    6.55461918679995
C         9.81833282782922    2.46197492178547    4.58436392711475
H        10.51178518251782    1.63315341937175    4.37857767847408
C         9.27899049766888    2.24661772188283    5.98492286215198
C         8.53072632559358    3.22425719110631    6.62908280161959
H         8.34408400325656    4.17109230676138    6.14332533454100
C         8.02811224058343    3.00122108657947    7.89804446801384
H         7.45004011588787    3.77145622352890    8.38805177554831
C         8.26614473941300    1.79759903115165    8.53936273136716
H         7.87447542821481    1.62573396868358    9.53093651414712
C         9.01130290402537    0.81957984285030    7.90463884599917
H         9.20770924262064   -0.11946185370688    8.39954657784286
C         9.51339647880946    1.04245133744584    6.63479876939906
H        10.10298976770656    0.27722898240402    6.15170651292428
C         8.68375199388359    2.34831009185371    3.58501664448473
C         8.51369226920322    1.17041955554723    2.87002322309734
H         9.21041174535049    0.35621914766943    3.00488780763706
C         7.46770824662026    1.03643563195381    1.97445837149124
H         7.35148739902476    0.11631123495950    1.42185434357008
C         6.57743778326487    2.07861565260429    1.78363514327905
H         5.76044962820967    1.97565428004978    1.08497014536503
C         6.74224008694837    3.25762121025821    2.49004617962053
H         6.05435347682334    4.07795210901995    2.34357732765789
C         7.78835790031867    3.39176906345607    3.38480024602025
H         7.91091872659459    4.32199776441090    3.92105482365389
I        13.30469446897554    2.03629416381880    5.85391008080179
C        15.21805713108259    3.77156804447649    3.44579667612428
C        15.08700091052133    4.54451755892162    4.62759092303806
H        15.53756530634599    4.31090535926284    5.58469354334149
C        14.42985526815376    5.74673898907029    4.30274091203685
H        14.32801124528496    6.60084741263988    4.95939963803447
C        14.13605782799220    5.72263386280426    2.92018017306584
H        13.76834169755797    6.55324619541564    2.33184143451076
C        14.61912924275545    4.50904400670530    2.39513213499966
H        14.64360463247270    4.24228890757503    1.34584741953142
C        15.94983131094890    2.46188181323181    3.31589321653131
H        15.25602222604026    1.63298940892856    3.52021666162945
C        16.49098285032550    2.24728215701071    1.91591218039097
C        17.23779929921088    3.22612605689261    1.27189085309883
H        17.42163274624511    4.17383442241819    1.75703879337431
C        17.74253157587174    3.00320675008051    0.00373404070951
H        18.31948768320217    3.77435007511991   -0.48616201918017
C        17.50801145299764    1.79856478980156   -0.63695156733588
H        17.90142631827598    1.62674558706956   -1.62784100042274
C        16.76405029435736    0.81945877527458   -0.00249073577309
H        16.57027683009076   -0.12036266236673   -0.49696308894103
C        16.25990248288876    1.04218739155349    1.26654722162731
H        15.67127460211565    0.27610353414896    1.74945376595170
C        17.08314507333581    2.34739930946581    4.31665409578929
C        17.25003658103446    1.17030139037254    5.03367730261848
H        16.55199666863448    0.35717863763791    4.89913542326738
C        18.29444500800009    1.03580523378118    5.93101149564661
H        18.40806273318248    0.11637578677653    6.48530197709219
C        19.18635008362237    2.07663511744915    6.12150993403488
H        20.00203376988812    1.97331030200719    6.82164135226795
C        19.02484914010619    3.25478899278909    5.41290377159487
H        19.71410430226550    4.07403183504749    5.55903322490733
C        17.98027696303451    3.38947146791045    4.51642721350321
H        17.86035466886982    4.31897427916758    3.97834730820964

