81
CSD_code = PEVVOE | q = 0 | S = 0 | Stoichiometry = C40H38I2Ti | MND = 12
Ti       -0.81408904922799    7.96034675220933    5.40323039984680
I         1.71838731757758    7.72065465051425    4.37188144686051
I         0.04273667129436    6.63172344730873    7.66911783738731
C        -1.26795809633428    5.77808012772116    4.50756367342736
C        -1.32670532773322    6.71814570709627    3.44866409117097
H        -0.73604209397251    6.68075470439569    2.54258004821104
C        -2.39892274240935    7.59807972354562    3.69108532241752
H        -2.78180368409572    8.32017747565349    2.98264256157021
C        -3.00712891028193    7.21539424779793    4.91025176578252
H        -3.93082403443630    7.61430741126178    5.31252299133513
C        -2.31270404841810    6.09860956387791    5.41086208683351
H        -2.59851233040379    5.51060227847869    6.27400296490499
C        -0.33267867611600    4.60205566593383    4.60085314750754
H         0.55767553849441    4.88669416530340    5.18069114688623
C        -0.96830036888476    3.42887839927203    5.31926456623271
C        -2.25361113334080    2.99866022731418    5.01250791028021
H        -2.83754489356395    3.52291248695730    4.26931537194789
C        -2.80287931335159    1.90923879400300    5.65965662363328
H        -3.80490604109235    1.58887261027226    5.40996758594515
C        -2.08656920990323    1.21765683585162    6.62991328988168
C        -0.80542887623874    1.65272379868282    6.93600114338554
H        -0.23142455808697    1.13739578235875    7.69221226126613
C        -0.25219307674899    2.74322519937381    6.28948461232332
H         0.74336168768651    3.06895574188027    6.55285828754221
C        -2.69796474700582    0.03824208272376    7.32313074764489
H        -3.59581373898217    0.33836810378926    7.86257850390774
H        -1.99991842368844   -0.40149029566931    8.03061404341531
H        -2.98496048987187   -0.72203437888315    6.59756952889023
C         0.15495195882978    4.15863289237559    3.23607696547306
C        -0.72810505323820    3.94271213314452    2.18517700844860
H        -1.78581613317206    4.11447850712949    2.32327773891871
C        -0.26616149614226    3.51757597651273    0.95485273663351
H        -0.96751491824477    3.35622428867678    0.14802033768383
C         1.08815766412598    3.29289081022512    0.73830402895173
C         1.96676076613886    3.51097539245076    1.78954600014259
H         3.02477247690305    3.34976898306473    1.64468237292329
C         1.50761284235132    3.93740857067947    3.02258106638394
H         2.21331344274341    4.10877541318153    3.82199655692217
C         1.57748396860305    2.84490279490860   -0.60530692283747
H         0.94896873999620    2.04745024418120   -0.99732449181954
H         2.60223046685762    2.48828513253761   -0.54576806314541
H         1.54489200716475    3.67372255700046   -1.31277763627830
C        -0.66268874294726   10.28014046457457    4.87086126473066
C         0.11377725420439   10.12806188568772    6.05262846053757
H         1.16028290968933   10.38954200863908    6.15570100205306
C        -0.73673504106301    9.73310075711220    7.09499846740963
H        -0.45952754023406    9.64472245027268    8.13675899352927
C        -2.03772720428421    9.58133937247324    6.56709217131736
H        -2.93124358469512    9.38851187529433    7.15064920570315
C        -1.99902107970763    9.97234767308722    5.20747318999566
H        -2.86360870962082   10.13979887235621    4.58074967741729
C        -0.15721079608460   10.90679523299651    3.59727972021560
H         0.88802694689127   10.60113002353446    3.44902612789542
C        -0.96067344240980   10.44722548461664    2.39818920122889
C        -0.47520426684556    9.44396995096650    1.56705501848228
H         0.50525955366899    9.02319464291420    1.74437783536445
C        -1.22744561371781    8.98880920815437    0.50000478203629
H        -0.83529534672595    8.20712140488100   -0.13496354615171
C        -2.48137526153499    9.52495867208151    0.22895786181370
C        -2.95170945195985   10.54512658270313    1.04546716581575
H        -3.91623541684182   10.98963087084092    0.84332041723671
C        -2.20151919394575   11.00450913809994    2.11385956437897
H        -2.57830177421650   11.81282934298887    2.72519761764169
C        -3.28888149670094    9.01286726774306   -0.92404760535800
H        -4.24150234582413    9.53135004143142   -0.99558849309926
H        -3.47951639558495    7.94624911679896   -0.81042388413511
H        -2.74577658253182    9.15389097342505   -1.85751940573595
C        -0.16830183790137   12.42354247060277    3.67911867141114
C        -0.89053327045218   13.12518622405358    4.63237935482142
H        -1.46471637632872   12.59719845588125    5.38075821229465
C        -0.88060121852202   14.50926400909334    4.64260818855883
H        -1.44748196326650   15.03796067373607    5.39596418792348
C        -0.15507278883058   15.22674818567929    3.70251597247063
C         0.56357771801144   14.51893397404315    2.74586538291305
H         1.13580978105426   15.05682887242005    2.00370303227037
C         0.55780243847122   13.13846132556249    2.73376337043487
H         1.12153808072497   12.60418600207042    1.98223031314446
C        -0.12285225762790   16.72408840705425    3.73168209627070
H        -1.02363242680459   17.12461614789991    4.19072629907568
H        -0.02649196089929   17.12951457960621    2.72709549725046
H         0.73328462165082   17.06521235355850    4.31472295196715

