71
CSD_code = PEVVEU | q = 0 | S = 0 | Stoichiometry = C30H38Br2Ti | MND = 12
Br        1.47430597856541    1.43576510219426    7.32387077593014
Ti       -0.25109887732368   -0.32619074020101    7.53792726762952
C         0.04635172014843   -0.07739786119512    9.87634839022328
C        -1.13642179641146   -0.83476495237052    9.67296263750914
H        -2.12991921369565   -0.57300844067561   10.01272357349322
C        -0.79471933077564   -2.05880572262702    9.06842110422463
H        -1.46797009524430   -2.89316427657426    8.92436126306213
C         0.60476886559714   -2.07711383365519    8.88800241443441
H         1.19650061951810   -2.92904906694232    8.58131987182752
C         1.11975412130129   -0.86222605796747    9.37798541185358
H         2.17338330230132   -0.62631462229607    9.45279275576307
C         0.14957919150762    1.26870305243916   10.55063954096292
H         0.06113862487869    2.05509919533848    9.78519878693391
C        -0.97454591484934    1.50300701512124   11.57328414343076
H        -1.94650234629123    1.37527502684353   11.08562745201707
C        -0.83685230018938    0.52605877824780   12.74007592307878
H        -0.90573594780533   -0.50422334249461   12.38175046862414
H        -1.64859267043776    0.68818310969084   13.45292364346494
C         0.51072834288395    0.74216631422302   13.42748545582810
H         0.60843752880439    0.04195056245240   14.26537456346699
C         1.63469790543729    0.49153049797418   12.42290463541431
H         2.60419228348476    0.62788582894257   12.90750937234230
H         1.58199836883433   -0.53878171586199   12.06182782962383
C         1.50106893835420    1.46917073261520   11.25611288385439
H         2.31497801097293    1.31660257198629   10.53981300925066
C         1.58508531811644    2.90322845811709   11.77749598287873
H         1.50491977273489    3.60277990036239   10.94304978497588
H         2.55417751176426    3.06160694778585   12.25574143391819
C         0.46150801907880    3.15105697436098   12.78105329411794
H         0.52335502059759    4.17939034427390   13.15349115480029
C        -0.88486345379103    2.93730036500154   12.09351280704135
H        -0.99778808385253    3.63715355807525   11.26310308245228
H        -1.69761843837094    3.12109575866798   12.79960507568915
C         0.59765297500680    2.17562191429053   13.94951874509860
H        -0.19664195446308    2.35391292966982   14.67810743356694
H         1.55464275742381    2.32939131265667   14.45356872746945
Br       -1.97645535938356    1.43636536971125    7.75204208905648
C        -0.54871173468267   -0.07741002517891    5.19956640013269
C         0.63400279800199   -0.83490663847937    5.40277765667082
H         1.62748312842911   -0.57324538950824    5.06290028263756
C         0.29225689395928   -2.05890949401018    6.00737347109228
H         0.96544366316992   -2.89332768519753    6.15138924619352
C        -1.10720972079832   -2.07708309815128    6.18795690556282
H        -1.69899594541968   -2.92896814837711    6.49467317088770
C        -1.62213591501968   -0.86212540549731    5.69808426403990
H        -2.67575681589731   -0.62611974599810    5.62339698929610
C        -0.65194564695175    1.26869189894572    4.52527589381458
H        -0.56342209706388    2.05508742283419    5.29070442682759
C         0.47209466796128    1.50301784801107    3.50254748605025
H         1.44409413618578    1.37529796007742    3.99012496971843
C         0.33432347202104    0.52608565558398    2.33575359701399
H         0.40329109320077   -0.50420296605844    2.69404373553549
H         1.14598700341378    0.68826890538822    1.62283310846885
C        -1.01332582890491    0.74216324050899    1.64846978010558
H        -1.11109287512467    0.04194678000913    0.81058772556742
C        -2.13718605424973    0.49149059501911    2.65316429938866
H        -3.10673084133027    0.62778850543148    2.16864786329109
H        -2.08440337230852   -0.53881448003142    3.01425237464374
C        -2.00350684726480    1.46914869569085    3.81993450191240
H        -2.81735490322081    1.31656685239498    4.53630194320801
C        -2.08759455970144    2.90319775497123    3.29854947869050
H        -2.00738864996177    3.60274964935957    4.13299063941788
H        -3.05672886484484    3.06154526857568    2.82038077019012
C        -0.96411000767300    3.15105882394331    2.29489996145324
H        -1.02600444820033    4.17939213880810    1.92246762702579
C         0.38231588810691    2.93731883709909    2.98234324970514
H         0.49528191677975    3.63716759265086    3.81275134729334
H         1.19500874183604    3.12115176037513    2.27619167027801
C        -1.10034840267955    2.17561848323732    1.12645032113500
H        -0.30613411643511    2.35393301430213    0.39778134152617
H        -2.05739514982288    2.32936440484399    0.62250071576751

