64
CSD_code = PEVWIZ | q = 0 | S = 0 | Stoichiometry = C30H26Cl2N4PRh | MND = 6
Rh       10.20522589789891    9.69268194425618    8.05970352780657
P         9.36864368473713   11.73190475952048    7.38008231551897
Cl        9.81881149224492    9.08596721778581    5.82537532963037
Cl       11.08630269522949    7.61076584266799    8.66443585940647
N        12.27142062788761   10.14891446142192    7.75146808926113
H        12.53030596181829    9.14519598489741    7.74252123057919
H        12.68230561600738   10.58656683658399    6.92471368140818
N        10.59489846892343   10.27957210822617    9.87725859514147
N         9.79589961820903   10.35388591060803   10.85854355764667
N         8.42590264484420    9.07478632793571    8.58442006520070
H         7.90353773293635    8.50948436355269    7.91657295900828
C         7.85166034009724    9.27983887185713    9.74927489909035
C         6.51478237201031    8.84819590089617    9.98683164987960
H         6.01515073775222    8.30988370735628    9.19224075086844
C         5.87373461037434    9.10284838518947   11.15984448207135
H         4.85629681254350    8.76770104865807   11.29959657035080
C         6.51997606356036    9.80048761798623   12.19951842431936
H         5.99043312135209    9.99889629224026   13.11822322340589
C         7.81104219436582   10.20017348461251   12.03802252973620
H         8.34190925573308   10.71886188896138   12.82106168862277
C         8.52647473484904    9.95551197768489   10.83890695890330
C        11.88943674293884   10.73934665979192   10.07210148112099
C        12.33969036230382   11.24828137992868   11.29295639818951
H        11.66780541242270   11.22901835748285   12.13586507353423
C        13.61003239626996   11.77687298249339   11.39078848294353
H        13.95294753803309   12.17358801667507   12.33417626391926
C        14.44575641839670   11.81245770646630   10.28342233627245
H        15.43367085919572   12.23881666146537   10.36332499347551
C        14.01831607729721   11.28950854476083    9.07371872757396
H        14.67048049606816   11.30533885358046    8.21182701706777
C        12.75242267194174   10.74010969612342    8.96322961385239
C         8.85084401865644   12.73911083920882    8.80903068943211
C         9.85433980372010   13.20048101606863    9.66132746734668
H        10.89251359289685   13.07130168829999    9.38346097628538
C         9.53309225292529   13.81833740843727   10.85329966812429
H        10.32106330462342   14.16713489678969   11.50443247829110
C         8.20477734439210   13.97681473736404   11.21529008241801
H         7.95192984893658   14.44676460165961   12.15387374548270
C         7.20311922825987   13.53224242781698   10.36995527224761
H         6.16666624224846   13.65929364960524   10.64565623089489
C         7.52099293644902   12.91437191566911    9.17278751727186
H         6.73092631768543   12.57474320325138    8.51933964227472
C        10.57486556436465   12.78171053427187    6.50718224639566
C        10.74803388075815   14.13447893505804    6.77935670763286
H        10.15317459007653   14.61706673859671    7.54109438835537
C        11.67671502505401   14.86947945661113    6.06259796359035
H        11.80685629825460   15.91978899752980    6.27856849382539
C        12.42963093876097   14.26830233080836    5.06769270664011
H        13.15215099815630   14.84802100258435    4.51265029892025
C        12.24208737912996   12.92631593355210    4.77548086570680
H        12.81162006544407   12.45964069135331    3.98505314321419
C        11.31900263424848   12.18437191300528    5.48960858617231
H        11.13481752540688   11.14474510190350    5.24763576126419
C         7.94243428583002   11.75116633284327    6.24938115650660
C         7.97615204365903   12.44025490102683    5.04175370407748
H         8.85356220582243   13.00211690162067    4.75837230847410
C         6.88669529684377   12.40199043678592    4.18931136276651
H         6.92614562186110   12.93520822529273    3.25063012809700
C         5.75628217410900   11.67941515977566    4.52900643051347
H         4.91189229373542   11.64482941332033    3.85667083677622
C         5.71546971443239   10.99242068741013    5.73116452822745
H         4.83779187734241   10.42270412418869    6.00050594139096
C         6.80151872953795   11.02493191223892    6.58513221888491
H         6.77036230813922   10.47678009443476    7.51496967673295

