47
CSD_code = PEWBOL | q = 0 | S = 0 | Stoichiometry = C12H20N2NiO10S2 | MND = 6
Ni        7.93934016544195   -0.00001372511075   11.57967064382978
S         5.01654772317664   -2.12544005696692   10.18408471742556
O         5.56949456213332   -1.24125009924850    9.14378159782240
O         7.04604162756620   -1.64059386275786   12.99598941938147
O         7.69678108517062    1.50582141254244   13.06497451272785
O         6.13096259977631   -2.84112859261113   10.86905891239669
C         4.40119830808349   -1.03112142205181   11.46690842464074
O         3.94920684805979   -2.98228178896275    9.76867134172091
N         6.18203189121023    0.52160938970878   10.94981367683863
H         6.24392603249661    1.53704546093800   10.86336983555961
H         6.06220155649833    0.02808253969665   10.02787114252545
C         3.30393240907622   -1.41443576881731   12.20430939736853
H         2.81692703863939   -2.33942278378214   11.94024495378853
C         2.85357291781122   -0.60899370873458   13.23946840331283
H         1.99348426614630   -0.90214630787129   13.82092894028567
C         5.07406951420045    0.15562615553813   11.74177542268033
C         4.61435071507035    0.96680764341770   12.77972468099914
H         5.13668594943353    1.88392259193429   13.00454164232389
C         3.51652143141543    0.57665137697185   13.52400206399321
H         3.16996870401395    1.20542716539631   14.32996600064999
H         7.52434730732656   -2.23957707983578   13.57142847505958
H         6.62275662874291   -2.19877378114763   12.29412613040059
H         8.42742032933007    2.15270883050195   12.83221430096735
H         7.94321210468136    1.18308149781878   13.93919907082602
S        10.86218489290000    2.12519910152224   12.97565732001963
O        10.30901770354753    1.24090690301187   14.01578519316522
O         8.83284969651785    1.64068738469479   10.16369242983569
O         8.18172943691830   -1.50592869555987   10.09433482347678
O         9.74797037186633    2.84107864886513   12.29061119398991
C        11.47753930345439    1.03099350137654   11.69276889205736
O        11.92955729024770    2.98185095410258   13.39136299012033
N         9.69661842345218   -0.52179331620961   12.20948708935785
H         9.63467377306578   -1.53725223588026   12.29568858765043
H         9.81636012400138   -0.02842883649315   13.13151628286554
C        12.57483376436592    1.41441902425464   10.95547013988700
H        13.06189206787043    2.33931113596275   11.21977541344443
C        13.02514088795089    0.60921315644329    9.92010387050597
H        13.88524695597123    0.90246267522833    9.33871757913572
C        10.80459966324007   -0.15565135104010   11.41762822086805
C        11.26425476989990   -0.96658618975929   10.37946014550601
H        10.74184507951584   -1.88360391970202   10.15441990984397
C        12.36209307099363   -0.57630177488064    9.63525928400115
H        12.70857419705507   -1.20488500330275    8.82911595480793
H         8.35437112101328    2.23943732720641    9.58829591364732
H         9.25562491582634    2.19908561614305   10.86562071113449
H         7.45112790963862   -2.15281486727084   10.32708111531475
H         7.93501286518680   -1.18300432528034    9.22052323184054

