71
CSD_code = PEWFIG | q = 0 | S = 0 | Stoichiometry = C26H42Cl2Zr | MND = 12
Zr       -0.33852011642947    1.26992980900488    4.82356135260021
Cl       -1.08168859232377   -0.44433053410678    6.24598964938875
C         2.73919575859434    2.37371555701549    3.21300646164642
C         1.76165743596683    2.71488968597149    2.08286619615776
H         1.27796282451013    3.67359920879860    2.26579976965819
H         1.01002575566702    1.92729069964824    2.01050113655823
H         2.28954716445312    2.78152132915468    1.13333622457215
C         3.50535703167869    1.10214487989008    2.83748561259121
H         4.25929367904784    0.87028930258426    3.58582743552120
H         4.01023435600297    1.24368661410350    1.88423805094969
H         2.82477100896645    0.25926324814739    2.74387910614999
C         3.74311638802120    3.52364838021748    3.39471166621100
H         4.32487849087240    3.66186142354127    2.48607912826006
H         4.42487650805131    3.30193219156749    4.21230175393600
H         3.23174513047598    4.45585121619233    3.62180786787929
C         1.97605533501829    2.19693245712690    4.51126654614114
C         2.12585862443777    1.14380497674990    5.44672577872843
H         2.74992983558091    0.27314166443930    5.30636874201056
C         1.16469823793467    3.18350538776664    5.12625504321963
H         0.97833644764169    4.17989704848252    4.74358531852240
C         0.83388537272199    2.73852018979451    6.43484985818752
H         0.38817388755044    3.36060609731519    7.19936613145023
C         1.45192260344039    1.47727912640491    6.64726821461387
C         1.71750087255411    0.80565594661131    7.98318892630849
C         0.54455075034551    0.94747522462540    8.95768656296819
H        -0.32474298307233    0.41262129848502    8.58233408346437
H         0.28968797910886    1.99218216388038    9.12058030709248
H         0.81618410953438    0.51762672563755    9.91964155332812
C         2.03181850439751   -0.68386046386679    7.79830694650675
H         1.24288878702808   -1.17397540012292    7.23101825912876
H         2.10751555009598   -1.16832639822699    8.76923636871588
H         2.97708221609959   -0.82477468224457    7.28001035377270
C         2.94936658300471    1.50695252575086    8.58513744523083
H         3.22362945566078    1.04164067170527    9.52916449146238
H         2.73915435516980    2.55893504313331    8.76410307292473
H         3.79570244580747    1.43961842086864    7.90554232136776
Cl        0.39737333546741   -0.44742818330123    3.39937146100770
C        -3.41729785393637    2.37393377065903    6.43452658125985
C        -2.43959640342840    2.71421695532914    7.56475350124904
H        -1.95633643342900    3.67304628517787    7.38163173501229
H        -1.68756576623593    1.92684734311613    7.63729859914434
H        -2.96749471854470    2.78113768580616    8.51426400407254
C        -4.18240192986394    1.10188595140704    6.81048361180707
H        -4.93635843568744    0.87047301169473    6.06212049711612
H        -4.68757071520605    1.24341557343010    7.76359189214166
H        -3.50185280177025    0.25874001392537    6.90381911060743
C        -4.42124519964384    3.52394596824815    6.25284797507169
H        -5.00290893037720    3.66203408412366    7.16156531760414
H        -5.10307921953026    3.30214929468449    5.43535050962587
H        -3.90994669144131    4.45620244819544    6.02576201216888
C        -2.65364211371389    2.19667859965113    5.13665434062778
C        -2.80321000288490    1.14328251264881    4.20142800786536
H        -3.42763410602070    0.27282880170031    4.34165332681388
C        -1.84236092067609    3.18328795249349    4.52160960911252
H        -1.65612961977294    4.17974676857600    4.90416468286938
C        -1.51201092675559    2.73845184331815    3.21290014647843
H        -1.06629543840852    3.36051145454143    2.44839284635840
C        -2.12994205973078    1.47713586491921    3.00057318111568
C        -2.39536553881894    0.80542572426891    1.66462437345105
C        -1.22273470534090    0.94775067977064    0.68977522644868
H        -0.35364989587673    0.41287344976631    1.06534311759213
H        -0.96760077439525    1.99240201589287    0.52682255719724
H        -1.49416331083140    0.51762692326857   -0.27212324160276
C        -2.70979362089889   -0.68403848105561    1.84980174412615
H        -1.92054307983411   -1.17379188138422    2.41704734267198
H        -2.78528284011433   -1.16843716913762    0.87883456066599
H        -3.65510528473026   -0.82524834107075    2.36803920184643
C        -3.62713595039767    1.50684240344435    1.06271457127644
H        -3.90143330224472    1.04142260688553    0.11876061046789
H        -3.41709560181808    2.55886646413622    0.88362973558226
H        -4.47344093670499    1.43943056873622    1.74233951397619

