103
CSD_code = PEWGUU | q = 0 | S = 0 | Stoichiometry = C42H52F5NNiP2 | MND = 4
Ni        5.41836975689356    4.37804968922304    3.51537424592103
P         5.62031422222165    2.55044693283608    2.38358665700443
F         3.42147597940918    6.03054296517795    1.83807118695572
F         0.71230348620595    6.02978199674943    1.82417821758103
F        -0.66818182618498    4.37640967819610    3.51762819986778
N         7.35169981020924    4.37763947468585    3.51625787344509
C         8.01890145379410    3.73209066683029    2.50783769333356
C         9.31066495327558    4.05722557369063    2.06494514189376
H         9.83644658141484    4.88976159782295    2.50817953984748
C         9.89525608871990    3.35185049712885    1.03461431044365
H        10.88865277302931    3.62389597653823    0.70735874511496
C         9.22644801727914    2.31284243554572    0.40204387891530
H         9.70153110670883    1.76394589366782   -0.39656891643779
C         7.92900955477716    2.01306652596246    0.77944727159968
H         7.38640839730659    1.23477999962445    0.26194266518947
C         7.32884346163666    2.71720445168613    1.80907898053590
C         5.61176168694365    1.06375920720930    3.48951621900021
H         4.56990141844639    0.89179424446444    3.78473675182669
C         6.41423290477397    1.44008938310804    4.73699036423399
H         7.45188149358199    1.63651565817495    4.45251665254219
H         6.00231365709617    2.36151954316082    5.17290179535583
C         6.37366002675771    0.30575133095712    5.75292106785058
H         6.95872794502275    0.57469850478705    6.63440833711155
H         5.34192519428371    0.14287147246346    6.07148078305373
C         6.92698428184438   -0.97296229982426    5.12930812682018
H         7.97643962707894   -0.82126135825197    4.86569005664054
H         6.87813233627418   -1.79141295388733    5.85021741794266
C         6.14076135058142   -1.34281746331532    3.87470656312061
H         6.55726119215313   -2.24811555469789    3.42773745982049
H         5.10338561263343   -1.55107291227132    4.14747069942065
C         6.17565490784859   -0.20384626696021    2.85629167957426
H         5.59520775124399   -0.48625920587567    1.97492500254546
H         7.20783617325160   -0.02684284294367    2.54428466121072
C         4.66596581573479    2.09652003892045    0.86488397272382
H         5.15947444706006    1.23741776078997    0.39476167637432
C         3.22041184909006    1.72490317297407    1.18907138542883
H         3.19281021868076    0.84170204882442    1.83150125796791
H         2.74813409266095    2.54922789184639    1.72856753169197
C         2.43612357956606    1.45347811848653   -0.09260545232686
H         2.86972477962955    0.59435832329869   -0.61058864466593
H         1.40226694776507    1.20666540348134    0.15657066260283
C         2.47692190831362    2.67098425697382   -1.01049250309344
H         1.91414103427693    2.46772813244495   -1.92339091607933
H         2.00710296341735    3.52003789292481   -0.50949938107271
C         3.92059186425349    3.02276554397923   -1.35492686621457
H         4.37549198607791    2.19250726472333   -1.90117514356184
H         3.94753968549925    3.90254666149098   -2.00014365638403
C         4.72072558960456    3.29385435860792   -0.08535416673367
H         4.31242050399092    4.17104788747402    0.42326705916324
H         5.76114912131450    3.51484262050528   -0.33848446964944
C         3.52193598661792    4.37880071873649    3.51453207833310
C         2.76376017903732    5.19940036974683    2.67852290360484
C         1.37579762020351    5.21468915890434    2.65880624574786
C         0.67172941577790    4.37716348633241    3.51667689159496
P         5.61993649019568    6.20556313327735    4.64721688774963
F         3.42625085853540    2.72737819783716    5.19115528110859
F         0.71664429345159    2.72464306214685    5.20924381784442
C         8.01848732826676    5.02367403084877    4.52465430116825
C         9.30997691801563    4.69858492314457    4.96836086930684
H         9.83574603572986    3.86558917927642    4.52597489818206
C         9.89424549617576    5.40460367248325    5.99843278894316
H        10.88741358340347    5.13256984614689    6.32638867699802
C         9.22537157237653    6.44425219852325    6.62989050134535
H         9.70022915564967    6.99368171824728    7.42827086406138
C         7.92815049433199    6.74398981608699    6.25172168066799
H         7.38551340740223    7.52284596026726    6.76833028443250
C         7.32828819922007    6.03916651303817    5.22237373252756
C         5.61130981452262    7.69117626980953    3.53990430916862
H         4.56930344821348    7.86337369756175    3.24531999474208
C         6.41252642789880    7.31299568031200    2.29217534531849
H         7.45031408183362    7.11630741698816    2.57596954207032
H         5.99966935652451    6.39124802797645    1.85766691122107
C         6.37169010993747    8.44620721775362    1.27501438444273
H         6.95587569655253    8.17598677612477    0.39332745279629
H         5.33977029441651    8.60927192610410    0.95715855951798
C         6.92621577089924    9.72530664076482    1.89678843945198
H         7.97581008026601    9.57332644405084    2.15968093455069
H         6.87719287921538   10.54298698592244    1.17502330691931
C         6.14127791768262   10.09700568291593    3.15165839242387
H         6.55865971073710   11.00257375623235    3.59726195117398
H         5.10378786516668   10.30552843125839    2.87954352447620
C         6.17639607171162    8.95914769630228    4.17130502174054
H         5.59679885575156    9.24280836530224    5.05283337504001
H         7.20872772470820    8.78192547330514    4.48270404255849
C         4.66526319867734    6.66069620987051    6.16535691076977
H         5.15862534806397    7.52034998957491    6.63463900506124
C         3.21967933706421    7.03182297889818    5.84076328440771
H         3.19197698659228    7.91430491570599    5.19734951094772
H         2.74745109488743    6.20685581108534    5.30221504264749
C         2.43541356128369    7.30461666476548    7.12216809876379
H         2.86897995781944    8.16433363927000    7.63918429938951
H         1.40153740153974    7.55109386494221    6.87274678915180
C         2.47629756479860    6.08813350100381    8.04141015506200
H         1.91355818897120    6.29238281215864    8.95411441429863
H         2.00647468669933    5.23851303164768    7.54138225337444
C         3.91999563641202    5.73677422618678    8.38615728747794
H         4.37489528762923    6.56763740165491    8.93148168246007
H         3.94700676565676    4.85769539109184    9.03233143616547
C         4.72008142344645    5.46434564189861    7.11683805032423
H         4.31175614256888    4.58662260045347    6.60917400883127
H         5.76050874430279    5.24361190937313    7.37016737335171
C         2.76582275401693    3.55746322646251    4.35170751964027
C         1.37796501565437    3.54044349079970    4.37358301118633

