78
CSD_code = PEWHAB | q = 0 | S = 0 | Stoichiometry = C31H43NNiP2 | MND = 4
Ni        4.69850507778768    4.69800299662086    5.21548959639764
P         4.49743162206350    5.24410509437236    3.14993835048468
P         5.15628898453762    3.92874932813076    7.16627343040171
N         6.09901864212472    3.46070665284602    4.58012802734746
C         5.54542483987864    6.73671817265883    2.77201076164180
H         4.98090227099797    7.60340788274982    3.13738041363163
C         6.81669430329542    6.59136803639650    3.60758580448650
H         7.39619845071742    7.51368924897701    3.60747280881142
H         7.44007748325828    5.79118598586354    3.21106999804739
H         6.55848695016452    6.33852180658944    4.64447173603187
C         5.86096830686635    6.91534045583351    1.29315463048454
H         6.51779225142193    7.77351017021022    1.15567236149887
H         4.95685176305497    7.08553886153285    0.71224305050656
H         6.36660535198056    6.03379309396953    0.90306355273194
C         2.93905633698358    5.46747115147676    2.16820137950563
H         3.20108913609419    5.50148927504098    1.10465211159253
C         2.21490296062503    6.75353269839552    2.55031798007657
H         1.26393197850671    6.81531874894330    2.02280835046197
H         2.80301308638512    7.63096246166473    2.29061773318985
H         2.01648857968395    6.77343499050265    3.61989773017897
C         2.06328201170403    4.24667927824122    2.43605470841043
H         1.13114911187390    4.30719419580615    1.87665948811528
H         1.82710929273921    4.19321185132493    3.49822358868220
H         2.58128311655879    3.33182516654383    2.15038999379949
C         5.33947893259698    3.85007932236702    2.35619301795319
C         5.25994256628783    3.50532352446663    1.01729099578871
H         4.70691765354665    4.12695344992962    0.32699306903209
C         5.87665332781964    2.35628468755664    0.55485093504868
H         5.82233529467366    2.09101672051374   -0.49031656431534
C         6.52919089981858    1.52761570727689    1.45798339895747
H         6.96423338120565    0.59981130219368    1.11277348454716
C         6.62189850662180    1.85837593283027    2.79183186893518
H         7.08920677740477    1.16874797766968    3.47951454240922
C         6.06723854664372    3.05597406311928    3.27738152772370
C         7.05393002039864    3.05009978916833    5.46416559820154
C         8.34500784055741    2.61781891544624    5.11208804582673
H         8.64758658989234    2.62914302978760    4.07515927907984
C         9.24775300298066    2.23175129426883    6.07797976357553
H        10.23440347005259    1.90603643937838    5.77857239160239
C         8.91833367063417    2.26881048080506    7.42644719639427
H         9.63122288928886    1.95165474142971    8.17273693317204
C         7.68078739613027    2.75787018631403    7.80565257067884
H         7.43903282989622    2.83676911824044    8.85645391990609
C         6.76316172919429    3.15484416997544    6.84736704890759
C         5.40101250946438    4.87476400241636    8.74354134337516
H         5.85573540800528    4.20553635529356    9.48261697156363
C         6.36392735466182    6.01744622703619    8.43346335244327
H         6.55611183736976    6.61515312550326    9.32312665746942
H         5.93043442749097    6.66246382784055    7.66978908488762
H         7.31272107671697    5.63135538823761    8.06233037952197
C         4.07998763585669    5.40544794710660    9.28913297472988
H         4.26245875493156    6.02420764756108   10.16678909926780
H         3.41676611027071    4.59363350877640    9.57959681448817
H         3.57701237699665    6.01253903344695    8.53933244789235
C         4.00594090758644    2.52781775227267    7.59455501521109
H         3.06354832969543    2.99479031560543    7.90643904862259
C         3.76670042806479    1.75814604222402    6.29608260760106
H         2.95052138929528    1.04508482758848    6.40456348918944
H         4.66528408946820    1.21418675652833    6.00818850019380
H         3.51841603687795    2.45600872620579    5.48565174940972
C         4.51870933070156    1.61686912512368    8.70164492717926
H         3.81897443059121    0.79706291112005    8.86035230694486
H         4.62606629594848    2.15566303059946    9.64077754046073
H         5.48357165937619    1.19283071925805    8.42925287843086
C         3.35793862416125    5.87574428400872    5.82093238064532
C         3.60105994401199    7.24225982184301    5.97776883565859
H         4.57623330000152    7.65578311311259    5.74415034799434
C         2.61057132950620    8.10253757337583    6.42524458950721
H         2.83297042458580    9.15569685490755    6.53427023266828
C         1.34080196666551    7.63567152640711    6.72938245207902
C         0.26123067354093    8.55796125325939    7.21242126544779
H         0.62716287533116    9.57896330889875    7.28822508671987
H        -0.09760751788377    8.24406719940352    8.19223297294551
H        -0.58655937496127    8.54335408199263    6.52792256440921
C         1.08868662273568    6.27827174617952    6.57383117792176
H         0.10574140822325    5.89127670499697    6.80740142206777
C         2.07466803449581    5.41400766920681    6.13106468606607
H         1.83323406516374    4.36095913526334    6.03372818701969

