55
CSD_code = PEWHEG | q = 1 | S = 0 | Stoichiometry = C17H27FeN10(1+) | MND = 6
Fe        4.42872905340668    9.56599486917789    4.04777481451480
N         5.24507480847735   10.56591706662014    0.03361104301378
N         4.73777758365719    9.91307271705432    2.05627753042762
N         2.84751318140544   10.61118328094900    3.72559559876905
N         4.24704803432138    9.37400957231350    6.23895387811589
N         5.97038771117548    8.51759234554719    4.28071742531762
N         3.63572886218517    7.76201045463911    3.51084927881802
N         2.87326317232084    5.96252043180544    2.52636524070175
N         5.37576701520964   11.25000209351548    4.34057383524477
N         5.81073073937895   11.95002788022344    3.51070042431557
N         6.27117861707757   12.67792697826318    2.76881897969551
C         6.92946481098811    9.11127478128337    1.15784091370260
C         5.64218372132002    9.84098688100743    1.10677557111843
C         4.04481706009431   11.14208721861095    0.31735517905207
C         3.73277864208927   10.73265637730172    1.59114135196368
C         2.70718324685794   11.05941792944902    2.52422620215251
C         1.88268700015443   11.05518720803774    4.70129879555305
C         1.89271323174554   10.20127293876169    5.96253134187927
C         3.21450866223624   10.29927147774966    6.72017714906068
C         3.91249838361559    8.01418557942468    6.65862276398315
C         5.51981092256397    9.78808065920674    6.86161451826779
C         6.74403209208537    8.94006966517776    6.52493678367644
C         7.10057807590281    8.97795062375369    5.03220176190920
C         5.93022072059208    7.29120580475187    3.88287206915289
C         4.67180709004348    6.86187414903588    3.36583555280102
C         4.19749454644994    5.72761047200542    2.75374082881268
C         2.56880144916473    7.19984560189093    2.99236230952027
C         1.21368973696923    7.78838016567922    2.88762219551007
H         6.76710407726079    8.06607085361124    1.41119324457038
H         7.44048016306786    9.17476729886319    0.20110956821520
H         7.56571807557757    9.55010022468481    1.92451692962343
H         3.53261237921988   11.78698432069210   -0.36479267614277
H         1.88582231848127   11.70535764444944    2.22639309857461
H         2.13081489335140   12.08800105777977    4.97433879552666
H         0.87557163330613   11.06105266099237    4.26590150008294
H         1.08977355064737   10.55196276155215    6.61193291750223
H         1.68155291448923    9.16748293036975    5.69557418747707
H         3.03525983612442   10.11863527831181    7.78974642024550
H         3.60245496561887   11.31204170084807    6.60501151693826
H         2.92928154324676    7.73493368265313    6.29167145452549
H         4.62594780394625    7.30326780023167    6.25238237394870
H         3.91261951785714    7.93140128690409    7.75228999451278
H         5.71674002502162   10.80512781686625    6.52160781897165
H         5.39846958489873    9.79231405359528    7.95421296339252
H         7.58619615971605    9.34564771841383    7.08699514208983
H         6.60751856425833    7.90389107048059    6.83877590981732
H         7.98833571822185    8.36073797096089    4.85112091728146
H         7.29874730388770   10.01149424062583    4.74662032153569
H         6.76469452316532    6.60275834545089    3.97936641294475
H         4.68187384328149    4.81698368196881    2.47150212114090
H         1.23444238501728    8.65555836015875    2.22990047394302
H         0.51087385552696    7.06037098738173    2.49136292942897
H         0.86425911508809    8.12101313154437    3.86183393980849
H         5.77796684284565   10.71063705630981   -0.80982813109338
H         2.23130023538672    5.31939084106671    2.09036651808804

