104
CSD_code = PEWJOS | q = 0 | S = 0 | Stoichiometry = C45H52N6Ti | MND = 9
N         7.42999968896431   10.55064384535010   13.11156317414023
N         6.49141404688888   10.88765923095008   12.20633373543872
N         8.30626708592344   12.96364261104811   11.55130076778453
N        10.06473336239534   12.95624394908063   12.83874682844264
N         7.92520259350497    9.66834125643103   15.22766014365043
N         9.67896047407241   10.81578600994986   14.20961049260829
C         5.43460494030454   11.54951930682373   12.55051664856218
C         4.41602049641148   11.76388965844393   11.52257155963601
C         4.37378000906517   10.92500111183913   10.40594966610985
C         3.42349747325452   11.10358340063402    9.42152948146382
C         2.48888073429582   12.12129938275143    9.53255399838454
C         2.51979112858875   12.96109460266819   10.63372322866057
C         3.47302007364412   12.78852217567562   11.61950591015981
C         5.21838708331427   12.09814170918045   13.90664664190055
C         3.98360195573521   11.97035386345391   14.54006168403686
C         3.79372816318050   12.47614399332542   15.81211081312820
C         4.83190152533196   13.11356142265611   16.47064608330567
C         6.06321047540137   13.24731988975931   15.84898167856312
C         6.26018519693700   12.74442874533931   14.57659603497265
C         7.10721113782759    9.89196165601120   14.23499102601447
C         5.76039343418134    9.29430812032716   14.42222146282347
C         5.06292074618264    8.67631694932639   13.39005023593199
C         3.81502436216798    8.12680481714039   13.62150176440171
C         3.25263710309739    8.17946776994220   14.88536171341366
C         3.95264052721995    8.77142474252693   15.92422987539721
C         5.19794848427939    9.32335483255528   15.69604082943609
C         9.18297562456145   10.21226159324500   15.21072647606449
C         9.94407407395927   10.01516109663273   16.46942180699985
C         9.35930246194618    9.39633672190106   17.57020079960397
C        10.08478666476169    9.21393133699842   18.73287324629452
C        11.39965295413783    9.64394299007294   18.81026800077662
C        11.98970118103973   10.25760430424704   17.71652244342958
C        11.26657631794037   10.44168759388502   16.55395065902716
C         9.16224344929864   13.70490732350414   12.22085713875948
C         9.13454332160943   15.21851171841372   12.29337513252391
C         7.30084112593876   13.48321146843131   10.64002346008374
C         7.90632870589156   14.00393490677207    9.32690509559254
C         6.33921580570827   14.53155980906507   11.22854061216444
C        11.02813921760795   13.39067594556351   13.83087479745592
C        12.12409671420327   14.33626608247314   13.29799546548463
C        10.35682754708492   13.94607463426174   15.09498344955411
C        10.33326167406112    9.19214500632288   12.13185599599275
C         9.17843847571911    9.14918339138022   11.30692270978947
C         9.27731560306180   10.18515384413281   10.34415503008194
C        10.49075079766613   10.88260469330049   10.57499461710369
C        11.14353334072970   10.27338442271189   11.68131926994951
C        10.71276500081573    8.14447887986099   13.13805365439573
C         8.15601647021093    8.04986450709959   11.31189846418624
C         8.34025139365421   10.32504051499128    9.17958841642647
C        11.10534178629933   11.95504046135374    9.71911902793898
C        12.53910589465574   10.57375288291409   12.14619606479255
Ti        9.19108241510594   11.18217487938632   12.51090253033852
H         5.09869732508782   10.12951548852905   10.32976698784322
H         3.40470852510304   10.44529295389025    8.56494759429715
H         1.74125960908640   12.25903211054662    8.76547632426495
H         1.79747721766503   13.75976649545498   10.72292508720749
H         3.49535736019753   13.46155068398811   12.46391787298832
H         3.18112957995505   11.44986821971473   14.03742475866611
H         2.83304088824677   12.36664687909982   16.29357130431512
H         4.68443324171723   13.50222768430550   17.46740657495374
H         6.87714754746693   13.74202886636437   16.35925238298960
H         7.23170720453004   12.85388388311813   14.09586892397429
H         5.49903345356825    8.61819272615358   12.40451166809438
H         3.28018146711154    7.65455851754842   12.81007418015553
H         2.27514198267413    7.75439993616120   15.06134020632604
H         3.52363022807069    8.80449643714642   16.91511646677873
H         5.75171467104513    9.79330709722979   16.49365816889758
H         8.33729403485944    9.06079732767839   17.49049542210542
H         9.62566544081640    8.73277524887718   19.58492507988062
H        11.96497886711496    9.49956980446602   19.71985588209645
H        13.01659133280748   10.59055590813658   17.77389751654473
H        11.71116902418033   10.91645342264112   15.69098619384577
H        10.07121471814277   15.60784874438257   12.67130307097175
H         8.33040023470444   15.53596140756657   12.95649595907977
H         8.96122082919182   15.64993240553062   11.31225306565237
H         6.68940338424595   12.61108945839567   10.37737125641028
H         7.10745102970232   14.19019880310898    8.61229941297259
H         8.45831212456331   14.93020514508204    9.46792819786720
H         8.58352532836161   13.26518593138934    8.91018096644296
H         5.40589687472665   14.50893550103730   10.66978285022765
H         6.73993794125933   15.53927773984525   11.16497246866741
H         6.11751032008747   14.30597562604066   12.26944513938018
H        11.52565614784547   12.45655471814361   14.12253593918466
H        13.06074302760240   14.13637542909850   13.81362808850478
H        11.88443662815717   15.38503009464516   13.46022713476094
H        12.27768434257000   14.17192913830566   12.23316613540903
H        11.10464391598616   14.12273486900409   15.86498138243562
H         9.83335039347394   14.87885467390750   14.89823124986268
H         9.64281768033714   13.20819345625615   15.46370833520493
H        11.46059755987025    8.51910242622762   13.83448735514163
H         9.84536063776978    7.82319226245959   13.71589323126086
H        11.12531099504369    7.26921051070079   12.62815482908132
H         8.72171652655767   11.03309427009941    8.44713088174137
H         7.35342004660879   10.66244481060198    9.49815760644342
H         8.22437133945056    9.35956943381239    8.68168174273565
H        12.77961912511729   11.62680931958225   12.01299382096131
H        12.65931514159582   10.31859714383788   13.19799774852182
H        13.25995502297353    9.98239746969648   11.57319266426364
H         7.92685226182858    7.72928489502707   12.32910161338746
H         8.53734288976060    7.18123957074000   10.76622472165648
H         7.23629449970099    8.37429175183798   10.82827906870375
H        10.97644860067751   12.94856104181090   10.15588394536996
H        12.17470824269689   11.77215598020140    9.60279519991388
H        10.65969286825962   11.96174021841729    8.72506647842629

