48
CSD_code = PEWJIL | q = 0 | S = 0 | Stoichiometry = C24H19AuCl2NP | MND = 4
Au        4.38841845833879   11.29444082996812   15.63080025384135
P         6.70655310760519   11.84045805684364   14.06931245759149
Cl        3.62724558113303    9.99013552458509   17.26691714891633
Cl        2.60846342000443   10.81060099292660   14.23564284632513
N         5.23374535255194   12.49673385281264   14.21204120165626
C         7.17818221928781   11.79548298424541   15.79761105757073
C         6.08563546220793   11.59416788242435   16.64403752056957
C         6.29926694271882   11.57034125570841   18.00805265072573
H         5.47201884993166   11.39585590819999   18.67817499417499
C         7.58138208005926   11.75238614552924   18.51045834237683
H         7.73583667530460   11.73878278297624   19.57904495536132
C         8.65913834784926   11.94525994839040   17.66127144861266
H         9.65106881746852   12.08124521145863   18.06618368065675
C         8.46533998866544   11.96536688957619   16.29157860894595
H         9.29348150345701   12.12123988750559   15.61279825262515
C         6.82402185953053   10.15102428633984   13.43095645848930
C         8.02548103868391    9.45868612144896   13.56864993822503
H         8.88233516380698    9.95741064051263   14.00306992367191
C         8.10224723210267    8.14340395522481   13.15352089669558
H         9.02980559595643    7.59970070727756   13.25516227802344
C         6.98436066291820    7.52017124283260   12.61735858404594
H         7.04714443149298    6.48954079198616   12.30166175652577
C         5.78761192543929    8.20748187357014   12.49424589044571
H         4.91635303818936    7.71707346769677   12.08814694898400
C         5.69846307551928    9.52750437713792   12.90118497245004
H         4.76151539945611   10.06317557054199   12.81718622869362
C         7.84377131592413   12.93357150511817   13.19930249399806
C         8.63935388029521   12.52823988052327   12.13577762464707
H         8.58752103930804   11.50917038048321   11.77631573537807
C         9.48904242468999   13.44521817345899   11.54255256562542
H        10.11180163271570   13.14190384802610   10.71426985121837
C         9.53913849196366   14.75014257213314   12.00713104023249
H        10.20302041027568   15.46031273440897   11.53752798730339
C         8.74171430322909   15.15038892026634   13.06935832270344
H         8.78487278160445   16.16851010284778   13.42566248889923
C         7.89277865275953   14.24183676485028   13.67151314471253
H         7.25798336477229   14.52384428125941   14.50186115268514
C         4.54551739615435   13.00913887600058   13.10179553679399
C         3.42575249183840   13.80751324108498   13.31565026231842
H         3.08319531521640   13.97131964313500   14.32627537189474
C         2.75748283861744   14.35554112720240   12.23962291197527
H         1.88193065199060   14.96319844834828   12.41116652663830
C         3.20025818423246   14.12652774427475   10.94598896413160
H         2.67107867820452   14.55452348726745   10.10817499666844
C         4.31363825418110   13.33395653200163   10.73033882648030
H         4.65956664798232   13.13873708070127    9.72585109507078
C         4.97780363535653   12.77066053531932   11.80333245254409
H         5.83236137892719   12.11717293356902   11.64776135184216

