78
CSD_code = PEWKIN | q = 0 | S = 0 | Stoichiometry = C31H42N4Ti | MND = 8
Ti        1.18373129107509    3.13808969144054   10.63694617787088
N         1.87580531036832    4.23139891404988   11.75860002272623
N         1.84325719847348    5.01616051257234   12.73608829638570
N         2.81379795781240    2.64099413304603    9.57538506433990
N         1.98667906534247    1.39732968421742   11.19093062965516
C         2.84425207318256    5.57500954075074   13.37028785379711
C         2.50131446948597    6.45476251644276   14.47804123046872
C         3.40384457831738    6.71869735002184   15.51230803050834
C         3.05066378256661    7.54328867731100   16.56249092108440
C         1.79054440912944    8.11694470799052   16.61256739096908
C         0.87866148794914    7.84859283855895   15.60311335542091
C         1.22765975038552    7.02881056969229   14.55035459998570
C         4.24173557290320    5.35755908678448   12.97601780734999
C         4.66767382365119    4.11013189256191   12.50973917412557
C         5.97238047502145    3.92847739958145   12.08922497029232
C         6.87238889893910    4.98054862380280   12.11021568355228
C         6.45606392611254    6.22580071952529   12.55464848163499
C         5.15679541850892    6.41449418270951   12.98084100572079
C        -1.04985442654592    3.28222262160216   11.02799606118894
C        -0.63613967147184    4.44762854427483   10.32374684837268
C        -0.17736618342681    4.04748659354724    9.03614502824289
C        -0.31294002329483    2.63571789751111    8.94625889316952
C        -0.85090592583755    2.16385402837369   10.17111848624735
C        -1.71414404292423    3.30166670389120   12.37874191711067
C        -0.81093790248997    5.86601360044461   10.79018868238498
C         0.11386962856711    4.99875425637642    7.90758035536519
C        -0.09979030861338    1.77916947263991    7.73039523113818
C        -1.34067739959594    0.75924555984296   10.38047873852450
C         2.99802279273173    1.59199772103034   10.35210685534908
C         4.23438090054909    0.72139142572836   10.30739200952456
C         3.83927026805084    3.21826492931445    8.73982254281027
C         3.78751487522496    4.73616613627766    8.94096529581184
C         3.61370446864551    2.85105313613168    7.26730571521844
C         2.08695762966686    0.55040735504869   12.35936691965178
C         1.27464118345393    1.21933230727558   13.47300496328100
C         1.56469408469469   -0.87094750177049   12.10058987644886
H         4.38148275934481    6.25857939960860   15.49751500883861
H         3.76213193594427    7.73684527137131   17.35314273509271
H         1.51947416647296    8.76392520197010   17.43413123812163
H        -0.10845967642077    8.28808793161408   15.63894245160573
H         0.52444944635695    6.81992010848466   13.75793812887412
H         3.96852836038310    3.28089211319685   12.49191767617582
H         6.29842672250683    2.95563751196460   11.74661305358853
H         7.89044866553131    4.83273223434714   11.78038752717168
H         7.15043293444652    7.05403603332180   12.56524033365666
H         4.83302348089559    7.39161705018099   13.30916171736532
H        -1.99489280878635    2.29828972993915   12.69644359793016
H        -2.62573128805929    3.90295548726374   12.33857976137003
H        -1.05430352391929    3.73542591031858   13.13515321386023
H        -0.96878898671206    5.89546299391795   11.86632777233388
H        -1.67734075531080    6.32172895374470   10.30187653212302
H         0.06784570901348    6.47086868656909   10.55837464708177
H         0.80335354776465    4.57257403019931    7.17870011623723
H         0.53700570521442    5.93232994052466    8.28098138086033
H        -0.81416709208134    5.24412792354521    7.38143996084930
H         0.64893622342480    1.00339919366349    7.91000049080666
H         0.22467907123550    2.37707189653348    6.88073229023050
H        -1.03316811254420    1.28250919127190    7.45302761665986
H        -1.50461645363621    0.53982708385248   11.43520134773535
H        -2.29406935318257    0.61776557040867    9.86117691732226
H        -0.63449701425395    0.03288082357888    9.97691363189645
H         5.02754388773646    1.17204944066029   10.90392399024504
H         4.02590953076794   -0.26880139787054   10.70205863589346
H         4.58695609851394    0.61981441751290    9.28361103928033
H         4.83941351548520    2.86776291042172    9.04232540963794
H         4.05569999837025    4.97788639972563    9.96958108399603
H         4.47701621817910    5.23877548618332    8.26598275870876
H         2.77089224735411    5.09044929613059    8.75801936678315
H         3.62985703957747    1.77055568196001    7.13568475801014
H         4.38836040445886    3.28977700466551    6.64288807191434
H         2.64506726036801    3.22180774613174    6.94006321273950
H         3.13808223310316    0.48186913801084   12.69299038170570
H         1.63309538712704    2.23982440153936   13.62910817966791
H         1.36451970714850    0.66173510163710   14.40309212431096
H         0.22484251740565    1.26116008316866   13.18099875205570
H         2.07405060503992   -1.32541836752177   11.25298600275420
H         1.72800578456781   -1.49350594630093   12.97736783296608
H         0.49995446415518   -0.84454749607345   11.88519413575658

