46
CSD_code = PEWMOT | q = 0 | S = 0 | Stoichiometry = C21H22MoO2 | MND = 10
Mo        0.29267779486830    0.80769752747677    4.10967190808386
O        -0.48069073419548   -1.45702954269662    6.01861603169462
O         1.74492269358011    2.14206436737186    6.44883981168573
C        -0.53011323263417    2.57099509644684    5.52540780569727
C        -1.24748152816371    2.23514635301272    4.25672077774548
C        -1.96264365418061    1.05302274757851    4.56230698764696
C        -2.40172931128791    1.07012518237193    6.01733303123839
C        -1.50905830803965    2.16958428570631    6.66003084927143
C        -2.23175078453156    3.44563805368262    7.13107025634052
C        -1.24260366239008    4.12570634850094    8.08649942525913
C        -0.33946755655868    2.99990853465239    8.62439744544105
C        -0.84958486871176    1.71478456338515    7.96752229330712
C        -3.91067888089779    1.32720907105137    6.08369139626782
C         0.92224846220857   -0.33812030157193    2.25534793165059
C         2.10766324823920   -0.19538579216170    3.03675977483354
C         2.41008054464442    1.16778227003636    3.17696301714056
C         1.47282803302013    1.91050939959538    2.39619673207649
C         1.34853356326935    3.28342560597475    2.11261827320922
C         0.36722677107173    3.69368545511625    1.24604592225883
C        -0.50912859442166    2.77242792961278    0.64339416347512
C        -0.42740988334077    1.42916407056515    0.90704000028619
C         0.56747971874263    0.97064955694373    1.79290052395076
C        -0.18317932318747   -0.59755700188299    5.31644539963480
C         0.91017657604493    1.80261891043219    5.68465113551673
H        -0.21853444748060    3.61880832503590    5.57510700252636
H        -1.49448585589650    2.97442051725344    3.49535325752868
H        -2.68311561091803    0.65434239044989    3.84917843934951
H        -2.22453112497309    0.11371831066656    6.52105979759708
H        -2.52265233114943    4.09213834893765    6.30324907398773
H        -3.12884648162433    3.17225672322053    7.68301868763568
H        -0.64803918984292    4.87454267071330    7.56234888667512
H        -1.77130248594325    4.63772935166716    8.88967607399020
H         0.69765000867099    3.17196814440068    8.34082508229335
H        -0.38145212419425    2.93118620754260    9.71032427176221
H        -0.05972886702433    0.98013366819730    7.81372641321827
H        -1.61952036534285    1.25545274805119    8.59065452392883
H        -4.17269720802182    2.26371021253521    5.59765164355820
H        -4.43258235019284    0.51869602909849    5.57623272653955
H        -4.25815238876693    1.35030494483966    7.11328620570918
H         0.58581243125843   -1.26945080949519    1.81452120242584
H         2.72888735123543   -1.01670437096229    3.37970180864046
H         3.29264739874153    1.57224579510723    3.65439553836751
H         2.03912932487326    3.99187536157126    2.55113093785912
H         0.26404713021452    4.74248367915764    1.00854050609423
H        -1.25684620929313    3.13954401744268   -0.04453956490268
H        -1.09120368747429    0.72304504337734    0.42508659150617

