69
CSD_code = PEWXEW | q = 0 | S = 0 | Stoichiometry = C35H24Br2Cl3NO2PRe | MND = 6
Re        3.62523903270733    1.29430432478357   12.10951547882281
O         5.24548704037524    1.59105536002167   11.92224998436432
O         1.87340372727857    0.75009604559180   12.67513413659177
N         3.61232702476720    1.52588351639147   14.41124285222748
P         4.01545955364766   -1.15493664232143   12.27347724999616
Cl       -0.90355469610636   -0.35209162743148   13.20360169649640
Cl        0.47574099491131    0.45535999141827   18.32676251265563
Cl        8.76613073574720    4.47971601348380   17.05907195381027
Br        3.09022516295391    1.00781766808625    9.73959569503750
Br        2.91469090177654    3.67969064565762   12.05628980853094
C         5.73026902661682   -1.63662082745002   11.93516009706647
C         6.41258245260373   -0.96270587248636   10.92586536417202
H         5.92708471936013   -0.15345963281699   10.39567242141349
C         7.71154114849663   -1.32250593157572   10.61501158645576
H         8.24046056534523   -0.79711060878014    9.83482433957147
C         8.33043482349739   -2.35283275939064   11.30434576259588
H         9.34530789020515   -2.63125393286311   11.06301482583222
C         7.64978229509053   -3.02889247132065   12.30475629759715
H         8.13108311147352   -3.83479404430518   12.83905769615236
C         6.35078231160046   -2.67664754690333   12.62241834067265
H         5.81778356970708   -3.20688495326354   13.40012504051247
C         3.00908449923138   -2.24791794738731   11.23112583348972
C         3.55953791056148   -3.40092220876555   10.67876700385322
H         4.59800014701244   -3.64386432876797   10.85140138602914
C         2.77438852824459   -4.23103187999979    9.90007005054273
H         3.20539484064794   -5.12337879978632    9.47103635440077
C         1.44586006474883   -3.91789175431741    9.66344706772369
H         0.83996342205537   -4.56702978548064    9.04949390310547
C         0.89840290969937   -2.76637906323421   10.20418558023656
H        -0.13272272454228   -2.51161630366072   10.01256829121844
C         1.67566211866852   -1.93066122477182   10.98355925700221
H         1.24592504688267   -1.02368357502397   11.38344340269562
C         3.69189825852978   -1.67233809481311   13.97964034411910
C         2.50506064973752   -2.29846770141249   14.34411103496203
H         1.79598971487714   -2.59583804892622   13.58372970025633
C         2.23624616146552   -2.53943251729731   15.68033192807051
H         1.31278313393983   -3.02300590767722   15.96071483456380
C         3.14358396447186   -2.15764484488912   16.65413759279784
H         2.92588179708454   -2.34108135825726   17.69522503039296
C         4.33027366837035   -1.53642010535417   16.29407380013091
H         5.03931435506193   -1.24018655810309   17.05291179902676
C         4.60277422098532   -1.28644043805857   14.96343405325898
H         5.51859420837083   -0.78745238680216   14.67181686831032
C         2.43469987005636    1.09850838302836   14.89322603568976
C         1.49133671072449    0.66766795839885   13.91015328579453
C         0.25928499123102    0.19486041639060   14.35212653038467
C        -0.03824508004806    0.13968327665986   15.71383715557461
H        -0.99929023396309   -0.23954754616013   16.02301766919990
C         0.87420046878684    0.56041067999535   16.65191200272973
C         2.13212492340527    1.06612501070400   16.27228102544828
C         3.13277033730416    1.54926071801693   17.14219532786871
H         2.95552782964627    1.53827480117522   18.20648311904307
C         4.29614465939830    2.03671529502877   16.62540270292216
H         5.06501715092581    2.42117549389739   17.27460669300245
C         4.53162231671530    2.03079440321082   15.22689339365090
C         5.73638755828670    2.55397565124883   14.63847121562366
H         5.88291173937129    2.27559538471776   13.60087459824979
C         6.61379846298563    3.37909758694236   15.23135366705502
H         6.47759214442109    3.67362598918086   16.26312171660464
C         7.77145200472050    3.95189053919589   14.57654165700655
C         8.81302059147971    4.51366195665620   15.32861608386379
C         9.91620950974095    5.08922773193244   14.72387411410427
H        10.70087407455395    5.50974328029999   15.33374319267739
C        10.00140949307628    5.12381880758001   13.34308359824120
H        10.85914466521927    5.57869230564652   12.87215146078236
C         8.98299376005408    4.58098863839021   12.57473645351689
H         9.04123382511816    4.61448241494820   11.49790495041458
C         7.88596529703276    4.00571885013239   13.18196750437258
H         7.08845464159730    3.61325009125182   12.57120658946193

