45
CSD_code = PEWZAU | q = 1 | S = 0 | Stoichiometry = C21H20N3Pd(1+) | MND = 4
Pd        8.60132246225316    2.42157837991924    1.86048766571322
N         9.37380455229133    0.61594485811099    2.34009946305266
N         8.52786191662272    1.45392564195253   -0.12220899500720
N         8.03642945293370    4.36688333992304    1.34698240916019
C        10.29149364476853   -1.99086294766598    2.72498834857430
H        10.62104378642963   -3.00678478145920    2.87929769395853
C         8.78047103103178    4.66404429345849    3.59899982968957
C         9.73585270368550   -1.62065696768965    1.48860798067620
C         8.58226530212220    3.27884142803154    3.67730590792311
C         8.77893023738077    5.44433769391584    4.74408798604393
H         8.94127343067909    6.50957902741848    4.67178008146705
C         9.30669308303419   -0.28343238938326    1.32886855916626
C         8.13096281572475    1.86616407804258   -1.31045369131130
H         7.91294061359871    2.92216078370565   -1.41904125420966
C         9.12239744822673   -2.13913563316618   -0.79498952902779
H         9.03047825883135   -2.83427215879265   -1.61506986053792
C         9.60902667435844   -2.53653278071932    0.40448159276806
H         9.92162172331185   -3.55670299974373    0.56493410597917
C         8.55665835877900    4.85316250603764    5.97744257078810
H         8.56388370853267    5.45613215358142    6.87188630183701
C         6.60032870192557    4.60050927394314    1.57869666165315
H         6.25680166981921    5.48050190949689    1.02082034784615
H         6.46099363252963    4.79167310073074    2.64679836132332
C         8.74356642100551   -0.78450484644156   -1.01678736713034
C         8.30152807173192   -0.31589375373199   -2.26541647682945
H         8.21842796343960   -1.00264377988030   -3.09386895341291
C         5.78339441415807    3.37252136318271    1.18558904354412
H         5.85749780194715    3.17248089220075    0.11618664824273
H         4.73595973406261    3.53308798301886    1.42642187931004
H         6.13777190558471    2.49156631075812    1.75496237791028
C         7.99595256272317    1.01560580337724   -2.41076039914012
H         7.66300250144577    1.41295205646676   -3.35583296126504
C        10.42396581088036   -1.03856849739201    3.70565876497282
H        10.87817996489898   -1.27321467114409    4.65449067868826
C         9.94830952370845    0.25497653444581    3.47488296993710
H        10.04160582718884    1.01159826081125    4.24404784197560
C         8.28777647222242    3.49915926961606    6.05624204534102
H         8.06915397331354    3.04631511669372    7.01146007266379
C         8.29198230422499    2.71280415268341    4.90924168690251
H         8.04511396289402    1.65993779666094    4.99711316562826
C         8.83041042030261    0.14726025591770    0.04264975393776
C         8.89096951689942    5.22202178977375    2.20214824461012
H         8.24353231715441    4.56462225911951    0.36393336877762
H         8.57536058798774    6.27241983013708    2.15596207937451
H         9.92550273335674    5.15253806407481    1.84067299843382

