50
CSD_code = PEWZUO | q = 0 | S = 0 | Stoichiometry = C19H27BrN2Pd | MND = 4
Pd        2.06385572392673    3.95269772281687    6.83460773317075
Br        1.82897779259270    5.33180841429903    8.90126086735404
N         0.64370525770023    5.07912451666860    5.80692239069041
H         0.10856539853337    5.53557767374501    6.55293140220486
N         3.34129383567936    2.76425676825235    7.76258203672028
C         1.88487370407096    2.74661591002900    5.23246091737291
C         2.71073582460122    1.74814462046932    4.73236861137434
H         3.66807185934220    1.54130014233305    5.20029850111132
C         2.33217094241218    0.99432070208968    3.62961211821361
H         2.99038769276732    0.22149283944297    3.25712311705692
C         1.11871889071052    1.22569581364503    3.00857309926018
H         0.82446211092423    0.63694126570412    2.15172627861508
C         0.28136147282848    2.22022926789674    3.48634865268539
H        -0.66811374301091    2.41026879916684    3.00237976248065
C         0.66071415408515    2.97119099039279    4.58669150121855
C        -0.20911349707963    4.06752551896602    5.15493364756050
H        -0.85554638207477    4.50674330133140    4.38421600164756
H        -0.86580207049658    3.63762195683336    5.92649631931589
C         1.15226007032634    6.17192482463344    4.94470313251877
C         2.16669712925488    6.96365625948641    5.77842306384874
H         1.69153982478132    7.41287747734138    6.64933231029281
H         2.61202919123753    7.75613623085052    5.18218469097838
H         2.96621521822990    6.29213519496606    6.12302288153818
C         0.00930394483464    7.10414950387385    4.52336110708883
H        -0.51535134104264    7.48737409410678    5.39723525101718
H        -0.70776097336758    6.59666729823272    3.88192166120531
H         0.40864253758520    7.95017076611091    3.97054705315392
C         1.86313953753975    5.61175590720480    3.71196918628694
H         2.29064671722453    6.43048549400632    3.13802612527322
H         1.18268492395221    5.06194031007723    3.06753732407694
H         2.66824028086637    4.93954048251084    4.01592947676864
C         2.85466315114389    1.75528257901435    8.49185206503689
C         3.69408621220907    0.95952458599504    9.25384421938553
H         3.28041024245614    0.14989113944244    9.83497499867434
C         5.06199302354639    1.20880822193648    9.27568016855732
C         5.53153349107374    2.27598048084527    8.51956141305725
H         6.58254346106773    2.52050377653418    8.51429777329348
C         4.64643979392594    3.03975436501411    7.77543485123136
C         1.37216152609116    1.55076283137169    8.45276468842799
H         0.86893145923517    2.47224448724643    8.78304361370345
H         1.07059359365373    0.73507086076976    9.10484633133784
H         1.05502518437271    1.32871746269471    7.42532337998077
C         5.98475482735943    0.38059893775876   10.10880202485383
H         5.63998506538184   -0.64943136288611   10.16122872128973
H         6.01413412934891    0.77742776072227   11.12393169994759
H         6.99521325284184    0.40127320707230    9.70832109575594
C         5.08582082401839    4.22933729787188    6.98136832787544
H         4.60946697677290    4.21182818052552    5.98977866338698
H         6.16624576129952    4.25368894606351    6.86627378505012
H         4.77079199527282    5.13806617452371    7.50764595705309

