59
CSD_code = PEXCED | q = 0 | S = 0 | Stoichiometry = C25H29BrN2NiO | MND = 4
C        -0.99635595974252    4.84181269316198    3.17502390486514
C        -1.72255045381772    5.58440535121452    4.16555335135360
C        -3.01216456610627    5.21351572324238    4.44034605772740
H        -3.56405373131869    5.78767217735851    5.16443142007784
C        -3.68155555158190    4.12961695220942    3.83210535827627
C        -2.97948921404412    3.38695487099351    2.92727965274758
H        -3.41645582268112    2.53103611405580    2.43740382700135
C        -1.64279036601127    3.70413278638102    2.59675973427577
C        -0.92041747006186    2.80354315753155    1.78975622366937
H        -1.43637310936114    1.87113616490764    1.55349262893363
C        -1.05489058420766    6.77469755635677    4.84041867210693
C         0.24556968944505    6.31886845148680    5.51610616375899
H         0.95082407313564    5.94371957896111    4.78152361138463
H         0.04166527018106    5.53263279857076    6.24133777294551
H         0.70770848815838    7.15711148077729    6.03197354033842
C        -0.74703136571466    7.84300271075149    3.78268709027609
H        -0.04826971668152    7.46688813941409    3.04315341840962
H        -0.30002057036023    8.71484664624762    4.25368183116790
H        -1.66057957034173    8.15021154467698    3.27640829150332
C        -1.94279238640466    7.41211042906070    5.91481359284297
H        -2.85513426232846    7.82108097296425    5.48562289471276
H        -1.40007096166913    8.23198781524059    6.38011205935350
H        -2.19836329710006    6.69563968475015    6.69314150928846
C        -5.12268874253529    3.84431171050945    4.22207987212217
C        -5.98353064762513    5.07350279234327    3.89892007281986
H        -5.91943029592684    5.30915676619442    2.83856523376791
H        -5.66031264217526    5.94515308858360    4.46097551685892
H        -7.02452860923998    4.87709329148572    4.14674819285264
C        -5.70331049478896    2.64444269385964    3.46849837524497
H        -5.69580492074312    2.81683820492791    2.39458002181596
H        -6.73494552405476    2.48696812379288    3.77622384420873
H        -5.14601884361379    1.73672975655588    3.68886317390425
C        -5.18821696371688    3.54257382790896    5.72575883666643
H        -6.21112633641091    3.31418722276735    6.01754857819746
H        -4.84808154382209    4.38841828256079    6.31656387571266
H        -4.56138320996021    2.68593607260394    5.96522487289698
C         1.02098775565985    1.82685029263068    0.94997686494948
C         0.77791253832411    0.62362781131003    1.59490434876188
H         0.05103465807455    0.58701078980566    2.39301015859078
C         1.47853351872824   -0.53923607064180    1.27815582405573
H         1.23493127097225   -1.45541250465839    1.79478987991853
C         2.48128993502034   -0.50663514591475    0.35097398384820
H         3.04743554495179   -1.39476879278085    0.11513776153039
C         2.82352307404595    0.70415049404832   -0.28366756459722
C         2.07788843502204    1.88526801845460   -0.01296498279609
C         3.92219824961576    0.75342013832322   -1.16687808664362
H         4.46686280847340   -0.15893237812275   -1.35767489675950
C         4.30815229750418    1.92867891428132   -1.74504928020032
H         5.16607115545833    1.96923798895160   -2.39797341243058
C         3.57616546414532    3.09327760444605   -1.49888000685900
H         3.87868220052025    4.02189155603171   -1.96202280952015
C         2.47099235791553    3.07335811355426   -0.68078345773363
N         0.30074509157046    2.95593451672621    1.34565846077283
N         1.73245449606850    4.27761917316051   -0.49396938322111
H         2.24929608443624    5.06877221042024   -0.89039911084499
H         0.82388058260559    4.22047619585769   -0.96660992011212
O         0.18953676055326    5.20362743983854    2.85187862519984
Ni        1.10227907065231    4.72844731417507    1.33747200141130
Br        2.25841686291028    6.62920068569480    1.32713192859260

