75
CSD_code = PEXDUT | q = 0 | S = 0 | Stoichiometry = C38H32N2O2Pd | MND = 4
Pd        8.07813399843994   -0.00000000000080   -0.00000000000072
O         7.97117301305612    1.92875087902765    0.62558845609389
N         8.10965274828766   -0.54698885036155    1.92953560821154
C         7.23496012946995    1.51574497224705    2.87559406321491
C         8.50952583834537   -2.40405591985595    3.53287703567244
C         6.60350697582977    2.07041348124409    4.03955747298838
C         6.25138056720450    1.29761198914273    5.16346223151782
C         7.09556312104595    3.71126337078076    1.81232094350681
C        10.30331278452508   -1.52959402492653    1.90268023340895
C         6.27155088273193    3.44808937654146    4.06787075439202
C         7.75710723310336    0.19213950937432    2.92529828966435
C         8.81946958129708   -1.80426056856388    2.17940466507851
C         7.77451442199038   -3.50162251670626    5.98855655020139
C         9.42907638117776   -2.49080752293503    4.56897220052209
H        10.43749567540817   -2.13092940872950    4.43697165601831
C         7.43950894696268    2.32168909647193    1.72520906834769
C         5.65200887777293    1.86292407210680    6.26051455553960
C         5.66135985946280    4.00404265910957    5.20367763239874
C         9.06266091168804   -3.04025049364567    5.78746644642825
C         5.36031130872131    3.22863635834441    6.29226953135921
C         7.21602370540875   -2.87811209278111    3.74345689367997
C         6.55175735309773    4.24650013304935    2.92910742204904
C         6.84875191378132   -3.41838690660794    4.96061997052987
H         7.91116206652727   -0.21050611137874    3.92653913944494
H         7.29345357028735    4.31376503653740    0.93750322400575
H         6.42995693357169    0.23261915152109    5.16931512182551
H        10.69277747317865   -0.77996899485303    2.59061899548352
H        10.88650947949207   -2.44287999239117    1.98955687395333
H         5.39554778567107    1.24325454642284    7.10782008321527
H         8.46458483916316   -2.50959583094453    1.41435914313686
H         4.89056638501366    3.65988094987420    7.16369123051489
H         6.30510327244011    5.29877015907423    2.96671325896656
H         5.42462517075363    5.05888190288580    5.19892355080610
H        10.39406678713412   -1.14600804404239    0.87557466915701
H         6.49582666985781   -2.80901096318103    2.93998907752780
H         9.78959471653335   -3.10297355527569    6.58412040117997
H         5.84076507053302   -3.77707350729530    5.10852477153678
H         7.49177055030630   -3.92507375203747    6.94087579658534
O         7.97117301305844   -1.92875087902925   -0.62558845609540
N         8.10965274828566    0.54698885036061   -1.92953560821286
C         7.23496012947030   -1.51574497224928   -2.87559406321580
C         8.50952583834019    2.40405591985549   -3.53287703567416
C         6.60350697583007   -2.07041348124717   -4.03955747298884
C         6.25138056720292   -1.29761198914633   -5.16346223151800
C         7.09556312105002   -3.71126337078335   -1.81232094350780
C        10.30331278452202    1.52959402492796   -1.90268023341186
C         6.27155088273417   -3.44808937654500   -4.06787075439236
C         7.75710723310147   -0.19213950937566   -2.92529828966542
C         8.81946958129363    1.80426056856362   -2.17940466508055
C         7.77451442198133    3.50162251670399   -5.98855655020261
C         9.42907638117147    2.49080752293520   -4.56897220052449
H        10.43749567540231    2.13092940873064   -4.43697165602168
C         7.43950894696495   -2.32168909647410   -1.72520906834889
C         5.65200887777136   -1.86292407211116   -6.26051455553923
C         5.66135985946504   -4.00404265911385   -5.20367763239864
C         9.06266091167988    3.04025049364493   -5.78746644643046
C         5.36031130872161   -3.22863635834901   -6.29226953135873
C         7.21602370540274    2.87811209277911   -3.74345689368052
C         6.55175735310199   -4.24650013305255   -2.92910742204969
C         6.84875191377342    3.41838690660507   -4.96061997053018
H         7.91116206652498    0.21050611137728   -3.92653913944614
H         7.29345357029303   -4.31376503653989   -0.93750322400692
H         6.42995693356821   -0.23261915152433   -5.16931512182569
H        10.69277747317610    0.77996899485491   -2.59061899548680
H        10.88650947948796    2.44287999239323   -1.98955687395678
H         5.39554778566772   -1.24325454642737   -7.10782008321477
H         8.46458483915940    2.50959583094379   -1.41435914313849
H         4.89056638501404   -3.65988094987948   -7.16369123051439
H         6.30510327244575   -5.29877015907786   -2.96671325896705
H         5.42462517075738   -5.05888190289049   -5.19892355080596
H        10.39406678713240    1.14600804404397   -0.87557466915997
H         6.49582666985248    2.80901096317821   -2.93998907752775
H         9.78959471652474    3.10297355527585   -6.58412040118269
H         5.84076507052453    3.77707350729159   -5.10852477153595
H         7.49177055029597    3.92507375203513   -6.94087579658617

