91
CSD_code = PEXFAC | q = 0 | S = 0 | Stoichiometry = C36H49Cl2O2PRu | MND = 9
Ru       -0.23751778575421    9.14400531233100    4.52614674044028
Cl        0.79503807099992   10.90684460182096    5.69911554229221
Cl        1.07057603205053    9.68685797702921    2.64088500743134
P        -1.78822657056054   10.73570778310479    3.86363748214827
O        -5.50088034990779   12.10850930665737    2.74408147201530
O        -5.06533704308323    8.23082138954949    5.31262027791689
C        -0.60154660354415    7.79136167402031    6.43116879525953
C         0.72712227437157    7.60933756581287    5.95740669521673
H         1.55866578795123    7.72928404105864    6.64229998797031
C         0.97340934192430    7.20150030080305    4.64715368945482
H         1.99037255143250    7.00825729884984    4.32087968271794
C        -0.09831219668730    6.96101490878228    3.73970856651275
C        -1.40739358510932    7.15956659355288    4.19361712372419
H        -2.24842495237117    6.92158411786917    3.55213039227622
C        -1.65209554089425    7.58193220989021    5.52318096352588
H        -2.67799229690951    7.63909026957653    5.86518349299576
C        -0.89728466456798    8.00475961889125    7.89760146124059
H        -1.89766632566754    8.44458438914246    7.98028217887871
C        -0.92365959466472    6.63159162417338    8.58287169145561
H        -1.67266427359908    5.98512932664985    8.12818323262764
H        -1.15943091845257    6.74749989407315    9.63811806793720
H         0.04651064196393    6.14531818845806    8.49865044415468
C         0.09941176720823    8.93405357213107    8.59061610267893
H         1.04849855257248    8.43174224800117    8.76405574195924
H        -0.29515472505923    9.24507919190903    9.55509898358236
H         0.28505233928179    9.82073122003561    7.98664641198876
C         0.19156112724097    6.45332629068240    2.36200381884912
H        -0.72881455355105    6.21949254477945    1.83155330312580
H         0.81682081624327    5.56196541608756    2.41038476180923
H         0.73606740394807    7.21663151677704    1.80128350768892
C        -3.03506066557579    9.79158818333435    2.89560434826546
C        -4.41218885795708    9.62241746904568    3.05582450178430
C        -5.10125345043205    8.80495657856499    2.15780848196510
H        -6.16683231727648    8.68350252804756    2.29392335866893
C        -4.46721175219869    8.16202342518717    1.11546196582143
H        -5.03239241998922    7.54103172056476    0.43598954754584
C        -3.09917157272538    8.31694786204991    0.95902643193117
H        -2.57863083502357    7.81725382569627    0.15506752624565
C        -2.40385729958118    9.11103772585282    1.84571881752718
H        -1.32855958821100    9.20283769211588    1.74014465865604
C        -5.27455835945928   10.22516434889134    4.10428213400904
C        -5.86632021107920   11.47636482649903    3.89378318726682
C        -6.76168885227782   11.98832368303923    4.82639885647815
H        -7.21535684507309   12.95590875545566    4.68850306268672
C        -7.08798569992643   11.23743772254000    5.94009809833386
H        -7.78579819641711   11.63563392356769    6.66118147235592
C        -6.54666624753782    9.98211055368579    6.14352048879066
H        -6.83318087014372    9.41899076761243    7.01622076861025
C        -5.64599304457061    9.46723158537285    5.21757423865376
C        -6.02727964257800   13.38611722980035    2.47961739944099
H        -5.59107065282985   13.69041771592826    1.52981293836257
H        -5.74391742478902   14.10645589686660    3.25360958840033
H        -7.11746369779114   13.36147982562582    2.38574114397909
C        -5.47469947403108    7.38319799271572    6.35840114823597
H        -4.95569178670016    6.43889922393006    6.19584348166855
H        -6.55390636992317    7.20516218727036    6.33348016420419
H        -5.19597329571173    7.78599547796330    7.33850467362629
C        -1.28189773849134   11.96224053437758    2.55798470976753
H        -0.97530306226247   11.31444985118995    1.72519557059647
C        -2.44241176060938   12.82961591747177    2.07386493118795
H        -3.30073085712953   12.20116310272775    1.82871050261790
H        -2.74743690071698   13.52907319523490    2.85363404926695
C        -2.00082079643463   13.61602670562956    0.84087544578714
H        -2.81709989354811   14.25722342582162    0.49813887387582
H        -1.76392873927972   12.91737019814744    0.03547384504159
C        -0.76933302142149   14.46228099184923    1.15207132679611
H        -0.45527024946174   15.00111854892779    0.25544148265843
H        -1.02275117970172   15.20336533955568    1.91438270079089
C         0.37128638857193   13.58514093883659    1.66103587291998
H         1.23902135295508   14.20353725957091    1.89704854264709
H         0.66580208043060   12.87732119757982    0.88392940418098
C        -0.06240882943035   12.81604034938632    2.90610815147713
H        -0.28359609983045   13.52359633792885    3.70229954181796
H         0.75024964848127   12.17425944066444    3.24798630263574
C        -2.68145971575553   11.67119449517670    5.20565383204683
H        -3.67611484182886   11.90746164631676    4.81723383140676
C        -2.79045834561349   10.72009720300886    6.39550645875488
H        -1.77168796519690   10.48003734003807    6.71376990366880
H        -3.28462444071538    9.80157451087433    6.07833786300098
C        -3.54485755583337   11.34707955064058    7.56155311561580
H        -4.57043058188160   11.57104042534498    7.25648058085900
H        -3.58937757250652   10.64172631682113    8.39550628986094
C        -2.84815521517497   12.62928334364575    7.99861077996525
H        -3.39155603220969   13.09220412267346    8.82535477239196
H        -1.83892464426253   12.39490836621812    8.34148419185497
C        -2.76577446737797   13.58931525636420    6.81934910890950
H        -2.26700204943989   14.51162380819732    7.12355908788139
H        -3.77834692738952   13.84593312534254    6.49311122829034
C        -1.99858594249007   12.96210354642700    5.65602629661100
H        -0.97602425035652   12.73810986950717    5.96422345938326
H        -1.96998509110069   13.68241461876239    4.83944984206158

