78
CSD_code = PEXHAD | q = 0 | S = 0 | Stoichiometry = C33H37IN3O2PPt | MND = 4
Pt        8.09876625065013    7.75840796795171    8.42797748649669
I        10.13244028133522    6.07893754267804    8.25416993569303
P         8.36945265508887    8.25609904354459    6.22925889463586
O         8.91908115023470    7.00178493138767    5.34242819589599
O         7.18361508910633    8.81016644748818    5.25413896303736
N         8.45718451763399    7.31507695594779   11.46810957879216
N         6.47661264197334    6.99039432448597   10.69802124579957
N         9.40535776175375    9.54545968928088    6.05915543686651
C         7.72103177127129    7.36270988350793   10.34402591986530
C         7.67777341023334    6.90839854199388   12.51710693055791
H         8.06681329433179    6.79652718519409   13.50795852756410
C         6.42756867985687    6.71120166660775   12.03259832962440
H         5.53079254746932    6.39565384333704   12.52495909702415
C         5.36932432179134    7.04214482519998    9.76919832834770
H         4.44781177819301    6.80129454116674   10.30318659924778
H         5.52807658147838    6.29311367865238    8.97973365959304
C         5.30934567036037    8.42885597738364    9.15940348617270
C         4.14078985860377    9.17139476991518    9.21453825595301
H         3.25382728787785    8.74931809241408    9.66880203354311
C         4.10470363147841   10.44912668322754    8.68198567729498
H         3.19092604249708   11.02423517416062    8.71834410741380
C         5.24584389802684   10.98277361375376    8.10975775270526
H         5.22597623897215   11.98153213024146    7.69669116626380
C         6.41297931957625   10.23679083446005    8.05386680567628
H         7.28825519128746   10.66907389844130    7.58462622597745
C         6.46657878345982    8.94730946352332    8.57042424163205
C         9.85341500253766    7.64319297858419   11.56770860134084
H        10.46187956372627    6.73673822681147   11.55750117060936
H        10.03900783765197    8.19617392438280   12.48814171767713
H        10.13495277744211    8.25670243424424   10.71108777713253
C        10.22011114029298    9.92284499006285    7.19048977626789
H        11.25545567190242    9.58031137526493    7.08419126326059
H         9.78546988652942    9.47305513907566    8.09933920181030
H        10.22146858944820   11.01054191170948    7.30737178518782
C         9.79812529945565   10.11864087734692    4.79367028461141
H         9.76515221409031   11.21054139084706    4.85921424865500
H         9.10499519211533    9.79614350390426    4.01935824044866
H        10.81326930975204    9.81783512279155    4.51106623269635
C         8.93460897984104    7.03216310148279    3.96498254350825
C        10.15440050521998    7.07330859259413    3.30858715682688
H        11.06382712596815    7.03749776531028    3.88778326861409
C        10.17182962979155    7.17336199699222    1.93393849072925
H        11.11809769597923    7.20819608944921    1.41387872228216
C         8.99214402748993    7.28814976908742    1.20500981332753
C         7.76662919763531    7.21244836816381    1.86229174114157
C         7.73931552551874    7.01794060234540    3.24904127203449
C         9.10084604308703    7.54686670131955   -0.27540025722272
H         9.80860541942575    6.83829545897690   -0.71283360505783
H         9.52674662752047    8.54722295775849   -0.40868003209118
C         7.76404626200261    7.47392302679351   -1.00384322987769
H         7.46822727923953    6.43084132981147   -1.13578797123258
H         7.85936950582634    7.92269574801047   -1.99433323931240
C         5.29982418004291    3.35005768378449    3.41873358274128
H         5.54091693451548    2.55122665224366    2.71515111022294
H         5.64896024595985    3.04791079037451    4.40782183695721
C         6.47991467483660    7.41717541541546    1.10993126756368
H         5.76189248792497    7.93059103361800    1.75375766910945
H         6.04580804931081    6.44856835493130    0.84848817575364
C         6.21709249275447    7.84752519291775    4.98604029063150
C         6.48169215914286    6.88054817889717    4.01876296816380
C         5.61256404997957    5.79206230114652    3.87663931153634
C         4.43701958913979    5.75563827512715    4.62411268744833
C         4.14459749090414    6.79747024326564    5.49776251715939
H         3.22234903877261    6.77274784927702    6.06032114422245
C         5.03566332208074    7.83051685524424    5.70600888623201
H         4.83785239726659    8.61063018090437    6.42242846085598
C         5.99495266832369    4.63745727018148    2.99179254232819
H         5.70528692068797    4.85080783556722    1.95927524510115
H         7.08011392163438    4.51533908292057    3.00647595906775
C         6.70403345006282    8.19457563793535   -0.18180349732177
H         5.76663202607879    8.26460197008344   -0.73672831816827
H         7.04089581960644    9.20832901801600    0.04456386317670
C         3.79799585510345    3.59833329651992    3.45781404140032
H         3.25449736341233    2.66755996168837    3.63050423976338
H         3.47448924024824    4.00143018678332    2.49543819577234
C         3.48206121496596    4.59131766527373    4.57001850630453
H         3.53302902545912    4.07475133387636    5.53438321706193
H         2.46154041773005    4.96811264496221    4.46336424188181

