69
CSD_code = PEXJEJ | q = 0 | S = 0 | Stoichiometry = C23H42ClIrN2 | MND = 6
C        -0.91343284609963    7.31378479408802    3.66834847634316
C        -0.26115901948348    6.53784765061118    5.88382121259375
H        -0.64664758333360    5.73063857621921    6.50593244687623
H        -0.72944481781888    7.46853335329687    6.22326169900000
C         1.24787443699579    6.65891537699327    6.08768425129214
H         1.46303321525171    6.57750216579397    7.15455284297373
H         1.76728144460076    5.84593418940244    5.57639131833510
C         1.74163975629153    7.99460359541717    5.55659987039525
H         2.82909456333282    8.05456132435237    5.63356426800688
H         1.31573746525961    8.80443950425361    6.14993126030797
C         1.34894742577763    8.15061752896730    4.08800598107759
H         1.89512178672350    8.99264107428401    3.65824821509175
H         1.66872612120376    7.24180166994537    3.56034894312896
C        -1.46697527242200    5.06521927181570    4.32485745514375
H        -2.07036343366797    5.21334579517412    3.42197634615910
H        -2.16272265078200    4.93441602345745    5.15988170954322
C        -0.63926977668625    3.77170033689119    4.14794863180884
C         0.54446640431932    4.00586397048716    3.21052100261635
H         0.19938636792050    4.34102353789231    2.23643423635554
H         1.10611263581568    3.08401020994155    3.07674727589651
H         1.21541151632295    4.76011168442844    3.61276274959480
C        -0.13084837005983    3.22733251741068    5.48649847202347
H         0.32476973089661    2.25003045169930    5.33876588679556
H        -0.95171694703988    3.11151890140109    6.19107830892310
H         0.61758675545011    3.87908701073142    5.92635058563651
C        -1.57497985344662    2.72818485162824    3.52852200540544
H        -1.91541480374836    3.05141995561121    2.54795105721833
H        -2.44659995125140    2.57528912871644    4.16041032441075
H        -1.06232596178964    1.77571069122978    3.41514766662640
C        -0.42630723367333    9.63234184429311    3.21255441685408
H        -1.37795024692976    9.46152655462525    2.69486438442979
H         0.32410807834509    9.93043128759457    2.47102532374246
C        -0.65502044778285   10.80647430501371    4.19472400291209
C        -1.37125786584778   10.33219201791986    5.45724858270979
H        -1.73612698810644   11.18574438572882    6.02368444143149
H        -0.70015125274268    9.76754442674589    6.09921471322670
H        -2.21767034687625    9.69895786120549    5.20242100057838
C         0.66189338705333   11.49722123459074    4.56140919736782
H         1.16433093746072   11.86674198099209    3.66895530170177
H         1.33544873656526   10.82365928690329    5.08324469777687
H         0.46553871769301   12.34545722413637    5.21374698663370
C        -1.55085131998827   11.81479498050163    3.46661509780605
H        -2.53390673903308   11.38476214637359    3.29334341278441
H        -1.11812200034952   12.09580268078711    2.50823769253219
H        -1.67302164693490   12.71532770550246    4.06373077070774
C        -1.52908347462730    7.69702483502487    0.59276929549489
H        -0.51685178892347    8.07564955451869    0.71702614340536
C        -1.70630508937746    6.31948441844234    0.83661800563535
H        -0.80759762546887    5.76042255915141    1.09363174164928
C        -2.73844729978891    5.45762921464434    0.14198022216928
H        -2.42560715573880    5.27473137665407   -0.89253629250788
H        -2.75781554225800    4.48687644340736    0.64378375527772
C        -4.15644847324788    6.05865082661769    0.16481837291104
H        -4.88393171760620    5.24453539742956    0.18137311367716
H        -4.33655658902403    6.63214147698747   -0.74598147645672
C        -4.38752918716282    6.95313020072008    1.36096755373321
H        -5.07906917102242    6.56367548903525    2.10290987252879
C        -4.16322428797368    8.31204143096744    1.34198376916988
H        -4.70945806486168    8.92552064239693    2.05481605910452
C        -3.61827070173304    9.08267872613051    0.16327953256729
H        -3.39319725035822   10.09769211166089    0.49826842299993
H        -4.39293844125863    9.16314529444893   -0.60720060482935
C        -2.34230506317374    8.45998419698792   -0.43509076741552
H        -1.72801438298306    9.25894619024800   -0.85545274892520
H        -2.59836142715675    7.78853911191649   -1.25653305164271
N        -0.70811867319894    6.28735020535044    4.52018430972625
N        -0.05936593808722    8.36108510794658    3.80320641445943
Cl       -3.69334290207019    7.77783421121048    4.47045623816372
Ir       -2.53468186028115    7.40506591304038    2.44935759633756

