62
CSD_code = PEXMIO | q = 1 | S = 0 | Stoichiometry = C18H39FeP4(1+) | MND = 6
Fe        2.81753480020016    9.05269169018804    4.15731674473073
P         1.09979953967488    7.74904768449197    3.91247182068157
C         1.34920984360316    5.94146527197821    4.01162517256742
C        -0.45438413746975    7.95102166923991    4.84030958025898
C         0.48423491613666    7.92675828120780    2.18659056405117
C         1.69464421374003    8.07100940582590    1.27923231680442
P         2.75781753525598    9.38453839678603    2.01290827530331
C         4.26904934872395    9.23636886157729    0.99900436347349
C         1.99177149930843   10.86827789274266    1.28001021404916
P         4.37257297404730   10.54568946584522    4.41762933741771
C         6.10942054722814   10.07862959763653    4.09186883063070
C         4.30461862377452   12.20899613339896    3.67844920898250
C         4.45694181396604   10.97711569687342    6.20533640971149
C         4.22706774097221    9.70036121774131    6.99667960236634
P         2.70149062548024    8.92137439789622    6.32104604441305
C         2.72398855617114    7.30493792847451    7.16959938036693
C         1.42582390878638    9.79939779852615    7.28366649727938
C         3.98351681298524    7.71762938395044    4.05733096956134
C         4.83578804229838    6.74757451249092    4.02252060779642
C         5.08941015000464    5.80224269592408    2.88151018216144
C         1.56660221996177   10.49643503620625    4.29804920166247
C         0.77988286868414   11.40740354199007    4.38463345024816
C        -0.16586433382349   12.50596597054707    4.48947590682175
H         2.08413374056392    5.64078945821906    3.26695987217991
H         0.40395456449524    5.42922521536955    3.83019524857877
H         1.72914439580400    5.67357749280557    4.99524045145853
H        -0.34000975872264    7.56825322458972    5.85386052637306
H        -1.24299630898394    7.39437818033973    4.33181806811560
H        -0.70560664848988    9.01024196203756    4.86991871718776
H        -0.12523910792702    8.83607521022395    2.15692147155250
H        -0.14278648072226    7.07091083852187    1.91742182936959
H         2.27267125087469    7.14088172942933    1.26206271618965
H         1.41882539791921    8.33224183135448    0.25281313058204
H         4.84890273134363    8.37929903999789    1.33701519507859
H         4.86912928967893   10.14036975974642    1.10147026225471
H         3.99190876706227    9.10716161859106   -0.04799726881845
H         0.96250703181294   10.94426251062293    1.62516196353308
H         2.02357810756212   10.78278358249146    0.19291734311681
H         2.52334180819082   11.76216379668487    1.59542122615612
H         6.38002559530832    9.23963170062181    4.73074593652174
H         6.76211453963858   10.92751672323540    4.29694084749128
H         6.22280907735502    9.77035339000154    3.05482925496600
H         4.57085733807463   12.16239317577456    2.62303472676502
H         5.01278446680274   12.85449241683385    4.20019288426571
H         3.29354133081041   12.59828941316864    3.78983357370880
H         3.65417533973608   11.69596442632040    6.40004403191980
H         5.41784306871627   11.44744216372351    6.43668894071823
H         5.05488429912437    8.99925125993285    6.84340187012697
H         4.11769830477552    9.88722134787914    8.06946917289807
H         3.46471792396009    6.65977849029880    6.70010079764554
H         1.74200611919933    6.83781213866514    7.09839186087992
H         2.97526568736217    7.45259709512394    8.22060757128660
H         1.45629634387896   10.85816107395868    7.03434511876456
H         1.62090167478180    9.65166673050502    8.34674235513719
H         0.43834314335359    9.42008655564298    7.03390880498115
H         5.45311147962083    6.56939725380620    4.89878128329111
H         6.12425949949440    5.88518303361306    2.55123668569770
H         4.43228923355593    6.02356039583852    2.04335443736078
H         4.91943970245898    4.77573268411545    3.20415234513378
H        -0.28002628265677   13.00304317211381    3.52504159721066
H         0.18275164342487   13.23971482438976    5.21767910554480
H        -1.14238641894742   12.13886255187479    4.80841136343405

