23
CSD_code = PEXNOW | q = -1 | S = 0 | Stoichiometry = C8H6Cl4N4Re(1-) | MND = 6
Re        8.55348016496576   10.85984850053719   10.65993536409267
Cl       10.08393858644336    9.88511684488306    9.24006793536764
Cl        8.23777714431718    8.90532648224167   11.83866646896935
Cl        6.78393323221409   10.29907126540570    9.19251866519197
N         7.25219539474569   11.92198949965399   11.77317489415814
N         8.66493625406146   12.67086956327693    9.78310870688740
N         7.82558950706196   14.91117951037638    9.86916834765423
N         6.27026160623730   14.08730082611052   12.05214675821165
C         6.52885743957995   11.48653365737718   12.81432117113335
H         6.66678492686019   10.44444099572729   13.07873424063025
C         5.66910972869139   12.30918897701082   13.50052558269195
H         5.09627874339536   11.94127312504991   14.33560573046720
C         5.57286808204566   13.63912948400066   13.06667207697049
H         4.91904793904594   14.35260321748585   13.55032296008254
C         7.08463999574223   13.24178481681626   11.43107702023230
C         7.87710457767884   13.66171710413716   10.31652531778878
C         9.42493885240580   13.02182852271435    8.73622913272082
H        10.04365478277526   12.23493710207181    8.32069307159813
C         9.41915681070418   14.29674582093147    8.22494173017371
H        10.03799903861346   14.56004355228412    7.38325167646189
C         8.57767033115945   15.23121960922080    8.84527939660485
H         8.51262638024083   16.25659271504729    8.50611220372376
Cl       10.28735048101617   11.50915880763954   12.13372154818754

