71
CSD_code = PEXRER | q = 0 | S = 0 | Stoichiometry = C26H39P5Zr | MND = 13
Zr        3.60259993009962    2.49592215994318    2.44863732497031
P         2.46614070599776   -2.61301198285926    2.74572569826433
P         6.35190096568918    2.08675365008965    2.19844524918643
P         3.12495999654279   -0.58707977457852    3.31524918487949
P         1.82668223460196    0.64160377047264    2.06790831061156
P         3.84541207825537    0.11975400341761    1.38209558496404
C         2.87251239142415    2.92751366023023   -0.00972522569287
H         2.57370536674014    2.14103729967074   -0.69248660716801
C         4.17385656795928    3.44004792027677    0.13773125620185
H         5.02503655155938    3.15003737378540   -0.46648937414448
C         4.11874760400146    4.52002413671608    1.05170882266984
H         4.92746474404047    5.20500523613472    1.28148979735004
C         2.77683382460772    4.66844290478461    1.45940080494860
H         2.37808521924598    5.49324918268736    2.03695421696531
C         2.01008195351847    3.66864909913374    0.82445304828336
H         0.93015307696227    3.57023648344093    0.86292253279848
C         3.80349117919037    4.28863337881563    4.28391101901044
H         4.02738780647469    5.33284319843347    4.10791942138972
C         2.51815904430507    3.71647228272551    4.37170152634630
H         1.57245497427210    4.24106151481546    4.28509880325500
C         2.66887846403419    2.37283815605979    4.77865414934057
H         1.86534882016671    1.70258234635607    5.06388728855644
C         4.05016858398932    2.11197870990199    4.92104738870803
H         4.47046540691831    1.21102066447134    5.35241361073465
C         4.75049072443047    3.30027250938261    4.61010594801436
H         5.80817626982348    3.48001212429911    4.76607402878142
C         0.82929778097645   -2.76449049414700    3.73652112514267
C         0.74630489247917   -1.89860726428008    4.99075970769420
H         0.81618827418636   -0.84353383835974    4.72506153354936
H         1.53751660854309   -2.13191822034598    5.69835748076424
H        -0.21348839411683   -2.05924870433046    5.48316006029178
C        -0.22440809249125   -2.28933845200909    2.72987698713682
H        -1.21573122819570   -2.29326164317688    3.18196557449536
H        -0.23589114589549   -2.94044742793170    1.85718296378079
H        -0.00033807864244   -1.27527734344596    2.39413886313669
C         0.52386689907401   -4.22012455743784    4.08536884674495
H         1.15506893629690   -4.58304611304574    4.89236739324088
H         0.65496268419539   -4.85953467762377    3.21463035987805
H        -0.51320975419105   -4.30352661019515    4.41191027340137
C         3.84574471116432   -3.60595979428524    3.62421736139840
C         3.68511250519707   -5.08499729081211    3.26611971192641
H         4.57672546565477   -5.63758850319787    3.56325967785211
H         3.55549553182984   -5.19860866557758    2.19122314668759
H         2.83256915923451   -5.53380838476197    3.76488114582083
C         3.94186173174117   -3.42908731228331    5.13603332671051
H         3.08495477614157   -3.86240363554785    5.64478332607682
H         4.00700094892556   -2.37290265549006    5.39468641324494
H         4.83846855875642   -3.92785633325453    5.50647913541826
C         5.14376124010904   -3.11332983054346    2.97714028234990
H         5.37090355174084   -2.10011833563724    3.30716250258137
H         5.04974786356243   -3.10541984566734    1.89149629713735
H         5.97822509302835   -3.75817182368448    3.25205049574297
C         7.06606993087859    1.37562763321733    0.65166085070326
H         7.08414514574177    2.11338312221257   -0.14743647375854
H         6.44686641906842    0.53342173522161    0.34182894665545
H         8.08511728382436    1.03648859247170    0.84223907133071
C         6.86753982559823    0.73633235249133    3.33726339079486
H         6.29666427185565   -0.14981037106316    3.05198858118084
H         6.63437655622127    0.98158851396517    4.37220676851299
H         7.93418063723895    0.53129935118522    3.23338272276088
C         7.63146219225173    3.36663805252593    2.52149837285885
C         7.77652756596304    4.38105829975018    1.57635171320655
H         7.18239939771763    4.35640127660046    0.67226759185828
C         8.67355831557218    5.41211296908738    1.77864033284030
H         8.78109974498807    6.18706371079398    1.03389449088865
C         9.42990361089281    5.45460231032677    2.93916357808735
H        10.12899467516745    6.26101087438010    3.10139278439510
C         9.28113182579560    4.46138675611150    3.89171596248362
H         9.86498995400033    4.49238012088373    4.80003469797139
C         8.38473308156465    3.42624042223382    3.68931875378946
H         8.28263456149711    2.66238202603065    4.44592006204331

