102
CSD_code = PEXRIU | q = 0 | S = 0 | Stoichiometry = C48H40ClCuN2O6P2S2 | MND = 3
Cu        1.54548198697050    2.70649393517294   10.88840083799154
Cl        0.45354177263195    3.86935316180085    9.38304283594952
S        -0.75414739647739    0.51871014093389   11.98072935883199
S         4.32653362377298    1.32953732508239   12.13415937397406
P         1.34943214079668    0.57233103036925   10.08169092571818
P         2.30296407514009    3.20132080232533   12.93114591475524
O         0.01463665245351    0.51229500939878    9.12074521362702
O         1.36068274140538   -1.02894917817729   10.48746764092517
O         2.96815521159894    1.35846923833380    6.32405447719867
O         2.03236493012200    1.94661468535790   13.95573420493589
O         3.65030065873781    3.81719765057700   13.66297694596606
O        -1.52906306051083    4.30645444651200   13.96940545853942
N         2.57353379622693    0.40630325576781    8.96692795746621
N         1.27664321559656    4.33250143341804   13.59294303774758
C        -1.14135639444871    1.18744026349281    9.37798136079638
C        -1.67117116934704    1.27683110201658   10.64349744515020
C        -2.86015079408563    2.00119708176178   10.89099842863114
C        -3.39490315346318    2.18416959310160   12.18117077446713
H        -2.87158397443213    1.76941246394705   13.03000440490926
C        -4.54092311413663    2.90500813126502   12.36920119376201
H        -4.93173104714725    3.04512976738591   13.36559388406667
C        -5.20708356122564    3.47614163869798   11.27623662895333
H        -6.11033503725696    4.04456572076429   11.44135663436068
C        -4.70939219040193    3.32062191882077   10.01235160832886
H        -5.20955555910594    3.76637826387601    9.16483701898638
C        -3.52782212813141    2.58767007265005    9.78301963908573
C        -2.98449866679838    2.43861733709693    8.48979138426834
H        -3.49525496933397    2.89512068297061    7.65539028250078
C        -1.81994067131330    1.76056642807461    8.28810878537857
H        -1.37483567424158    1.67380739806411    7.30988896376016
C         0.27857794809767   -1.74467852441980   10.87397566826648
C        -0.81773146440045   -1.20310071817504   11.50472284256127
C        -1.93251233276041   -2.00944556659128   11.84369365404074
C        -3.08540666595824   -1.49424320479881   12.46590082386266
H        -3.12726759073412   -0.44219511694659   12.69665619198329
C        -4.14357511439165   -2.30682525968795   12.76727594985055
H        -5.02197225445235   -1.89342983533245   13.23984489938301
C        -4.09945425901797   -3.67466213447387   12.46587562282087
H        -4.94315761263978   -4.30266927472788   12.70998791721201
C        -2.99209423176618   -4.20601896059549   11.86477430741888
H        -2.94723878379782   -5.25870173456450   11.62542146592384
C        -1.88680926786523   -3.39589000623416   11.53727890415500
C        -0.73762703873726   -3.92585019791769   10.91209869188235
H        -0.70721571101224   -4.98202348892220   10.68831443437367
C         0.31141193687460   -3.12422269746949   10.57953908924028
H         1.19122072269932   -3.50742631218950   10.08707709669213
C         2.47058471093478   -0.48257506613507    7.82368610089897
H         1.73165286082053   -1.25592697042778    8.03755173294420
H         3.44897791403354   -0.95129829267242    7.66372688672117
C         2.06967838189752    0.30348863931917    6.57166660477719
H         2.09552235338487   -0.33749134593573    5.68781258828012
H         1.05366855201924    0.70258803218853    6.70749318826228
C         2.99926963600472    2.25444800857456    7.41519250404953
H         2.00595882289839    2.69890291371006    7.57593995505681
H         3.70806500894046    3.03954409761867    7.14828818003816
C         3.43701861115859    1.53719877741026    8.69364016941941
H         4.46475062390038    1.17094050707962    8.58161878909765
H         3.39179847425732    2.23210309959010    9.53923620783743
C         4.70835160803536    3.11914881741699   14.14219348157925
C         5.11663532974561    1.90848689745394   13.63238737809820
C         6.18938134899489    1.19514658663908   14.22189291973599
C         6.62393167139429   -0.05789181040192   13.75006504987406
H         6.12679976037320   -0.49596402091680   12.89994462394389
C         7.65703359791886   -0.71628281601360   14.35834741151945
H         7.97629751447195   -1.67813800860824   13.98566342896682
C         8.30865269619827   -0.15292858241165   15.46379465241902
H         9.12355162892873   -0.68511118230491   15.93122501713015
C         7.91266817688458    1.06510364518961   15.94267304628343
H         8.40836702234325    1.50990265507818   16.79332571427620
C         6.84975990829715    1.76828035430319   15.34180499740429
C         6.42974920393196    3.02850776372532   15.81983574507915
H         6.94784043822439    3.46446315224966   16.66115574392344
C         5.38417209218292    3.68462589873642   15.24416956139878
H         5.04000971393403    4.64085771528931   15.60539824946991
C         2.18772808140129    0.62426001231400   13.65556733808149
C         3.17742536541912    0.15356869789081   12.82482461080717
C         3.28474153883280   -1.22613586520272   12.53203249051767
C         4.21063195101856   -1.73404166721445   11.60074818077248
H         4.83961169833321   -1.03937231781757   11.06419738902303
C         4.28428893565070   -3.07628966083810   11.35163774074023
H         4.99423999766011   -3.45466558036464   10.63105435493846
C         3.43615113124938   -3.97136603802685   12.01963508280165
H         3.51037143384491   -5.02918274308820   11.81436757925174
C         2.50995257628566   -3.50487944902894   12.91044268959327
H         1.83435238256078   -4.18344596964016   13.41094619555126
C         2.40165625827359   -2.12682469354272   13.18442725446180
C         1.42481997538320   -1.61770483798188   14.06528004033565
H         0.74980888773540   -2.30727774804286   14.55015059282003
C         1.30826521173879   -0.27685923842673   14.28590702799611
H         0.54906036664027    0.12764319525703   14.93665295597030
C         0.70287695233904    4.19722043507392   14.91808583178758
H         0.60655980877695    5.19619116448685   15.35714561462108
H         1.36275430580670    3.59310743087860   15.54136171325969
C        -0.68269816622810    3.55293544432746   14.80652330752635
H        -0.57013157642461    2.53477565079394   14.39945377721560
H        -1.17569066231013    3.50854194610961   15.77990509683545
C        -0.98185075869755    4.43519383504695   12.67666755879438
H        -1.68630182705044    5.03077141140541   12.09583930837966
H        -0.87927643496902    3.44245169728452   12.20907870376991
C         0.39942169592509    5.08441894961026   12.71564171253642
H         0.82115984139143    5.10790079410707   11.70831670826436
H         0.32245284351730    6.10770791053167   13.09798903385476

