42
CSD_code = PEXTOB | q = 0 | S = 0 | Stoichiometry = C12H20N2O7Pt | MND = 4
Pt       13.17741575125453    0.73297116756315   10.10519940446622
O        15.84530586266937   -1.22239016660625   13.76506986059391
O        15.16755334872533    4.17549772834901   13.03099858998469
O        16.26117057766232    0.93980255755971   14.39034162205814
O        12.24707254432635    1.96120126263556    8.83119312465545
O        11.18887031088308    2.13364480002612    6.90847221515988
O        11.99837130033682   -0.80085927220709    9.59956882331415
O        10.84565089952726   -1.76233974926233    7.98877770588142
N        14.08896380156318   -0.39258936569110   11.66721630819722
N        14.34934318400876    2.31296941695115   10.89354473266597
C        15.33314427691404    0.05797777369074   13.79873670150981
C        15.06110767842696    0.47365330246540   12.33622635109087
C        14.57067459654563    1.93007248293640   12.29167127604144
C        15.58360523791450    2.84022438200175   13.02009710044413
C        15.81605063055805    2.27129666681110   14.43246865644573
C        16.08737753321289   -1.80065337726795   15.03893632800034
C        12.29691577201953    0.05205025778319    7.37314268618858
C        13.83949666206714   -0.10064279486199    7.31147405868114
C        13.71874975757118   -0.51489005494673    5.83401812596453
C        12.19274841619359   -0.35048930711645    5.89846151635994
C        11.84109799937235    1.48475509387984    7.69454068860218
C        11.62793782923422   -0.91772563667207    8.36232497046563
H        14.38379068489949    0.09325919675092   14.38526952838584
H        16.01708402710887    0.39601629847987   11.80441305950728
H        13.30045721599834   -0.61028242010713   12.28088325561157
H        14.50952470805353   -1.28349409146076   11.40696071503682
H        13.60058981713510    1.99327501770609   12.80527999164268
H        15.23795475638788    2.44170756372595   10.40745692521040
H        13.83776670635812    3.19372865107644   10.82261214646276
H        16.53385262067386    2.83611098744355   12.47356823498203
H        14.40977798283276    4.28664275484939   13.61825223832678
H        16.59837261626800    2.83216417200660   14.94549142853726
H        14.88029183062144    2.34424801734255   15.01182377598570
H        16.45988411846858   -2.80201236882592   14.84074015815573
H        15.16017336672306   -1.85446030849069   15.61880370531894
H        16.83179410880697   -1.22484943604626   15.59041790137256
H        14.38697222638229    0.83291171498560    7.46823754381346
H        14.24156236883494   -0.88086127099863    7.96388786514683
H        14.21497220779007    0.16311384353860    5.14219093324455
H        14.05085809867293   -1.53172008181191    5.63324494020958
H        11.61892831555303   -1.26297957601530    5.75297740710525
H        11.78326825145048    0.44224416782747    5.27630739917130

