63
CSD_code = PEXVIX | q = 0 | S = 0 | Stoichiometry = C15H39N4SeSi3Ta | MND = 5
Si        6.34220511439018    3.81675200630608    1.72655450055412
Ta        3.79703068573822    3.79660796996256    3.79709263064963
Se        5.15503843788069    5.16075432058538    5.15498596326402
N         5.00114896959537    2.95550901665109    2.43238244554386
N         2.28687500417482    2.28677276747268    2.28725557200706
C         4.61452412753649    1.65778136788880    1.95030183710355
C         3.21592639219123    1.73591944710157    1.31470553699006
C         6.72883832587584    3.12748789004913   -0.01802649946997
C         5.83469267046959    5.65470110950265    1.55493512706294
C         7.89156815809075    3.64049018826665    2.83145758317241
H         4.58413426314404    0.94163170762174    2.78772586488643
H         5.31729921183220    1.26463615487656    1.21067795651798
H         3.27596480478130    2.41512520647784    0.46041433429133
H         2.89774988812917    0.74778696896919    0.94994073482253
H         7.43331775563881    3.78062201467022   -0.51914063589137
H         7.18406716101362    2.14436041401608    0.03385088809637
H         5.84558510036794    3.05445233625650   -0.64479752234206
H         6.38843007033761    6.14494083241467    0.76053225394557
H         4.77314700535373    5.78333594195818    1.34948629989148
H         6.05231169331096    6.18355979933763    2.47830429577044
H         8.73093411268449    4.18436570816412    2.41103435055600
H         7.69726358437183    4.04843676501191    3.82006553738614
H         8.19516805357681    2.60386162940602    2.95118742946777
N         2.43283406109814    5.00123428743633    2.95580565081440
N         2.95556816118270    2.43240260681887    5.00144167392531
C         1.31450852748310    3.21609571882991    1.73656939320887
C         1.73602102051139    1.31440853524923    3.21649764043286
Si        1.72679556905605    6.34234543432417    3.81677282430781
C         1.95071492201515    4.61436656052191    1.65813741464935
Si        3.81720725449724    1.72623622458569    6.34213004962967
C         1.65779428032175    1.95040659695547    4.61487681318644
H         0.46048614566796    3.27659059600518    2.41606287190216
H         0.94926257074938    2.89788127195503    0.74862101554790
H         2.41535579095429    0.46024088126278    3.27684251398617
H         0.74794932602748    0.94944513996059    2.89834599455790
C        -0.01766915805883    6.72906428290338    3.12715170873555
C         1.55541088464340    5.83515317291789    5.65483543418638
C         2.83181846328989    7.89157897135600    3.64019646865976
H         2.78809013737248    4.58340321455127    0.94198396736676
H         1.21135692647205    5.31722961680960    1.26464570536450
C         3.12800138635598   -0.01857810855008    6.72775907957419
C         5.65513266833353    1.55499942400958    5.83466104582892
C         3.64015454717610    2.83030776260460    7.89200841711707
H         0.94171735350007    2.78785395731788    4.58413754697732
H         1.26448438941544    1.21106529072281    5.31782000120621
H        -0.51867655300298    7.43422925683947    3.77971126920413
H         0.03417318299104    7.18344497812921    2.14359222850806
H        -0.64467228406540    5.84586703877686    3.05490498332528
H         0.75793821484474    6.38544912438763    6.14401168134937
H         1.35478325662494    4.77270791429102    5.78356943303823
H         2.47721380869177    6.05701299050637    6.18462771464804
H         2.41127307183223    8.73105192816845    4.18356812647289
H         3.82036860226148    7.69751074903280    4.04839762609097
H         2.95165706372778    8.19476919516281    2.60359220369502
H         3.78094603880124   -0.51976997031580    7.43233647589185
H         2.14462755594261    0.03281866535725    7.18254689670861
H         3.05558633652010   -0.64497669777542    5.84420138569183
H         6.14480570246956    0.75784084783796    6.38493288624300
H         5.78383326614083    1.35466225096478    4.77209529993670
H         6.18427112315228    2.47713874303127    6.05660877265432
H         4.18379363814466    2.40947666654893    8.73125074616205
H         4.04837366288413    3.81887347708414    7.69817693222083
H         2.60348849348705    2.95006984046575    8.19544562270873

