77
CSD_code = PEXWIA | q = 0 | S = 0 | Stoichiometry = C33H41AuN2 | MND = 2
Au       10.36277553240315   16.08669984321481    8.63962563446964
N        11.20296167195623   14.06426281480720    6.54092334328463
N         9.36151613911021   13.47948688932212    7.45622889163905
C        10.30504598331646   14.43745843691005    7.46986236242107
C        10.82854553690118   12.88500234108200    5.94939166503325
H        11.41321231269872   12.42062208021952    5.18241038094888
C         9.66204709675807   12.51476317756367    6.52890132345628
H         9.03182179847963   11.66521752280083    6.36512160735511
C        12.37668195481578   14.80602082795752    6.24057236070319
C        12.30423546471319   15.83755471764769    5.30323093781526
C        13.45955114155486   16.56134193527038    5.04148004879734
H        13.43322866307589   17.36887320929150    4.32669271043551
C        14.64111814934894   16.26902043755915    5.69458536245003
H        15.52872694807227   16.84683773733003    5.48435117387999
C        14.69013822835383   15.24762718955905    6.62380255594207
H        15.61608879998938   15.04053459026858    7.13658489128888
C        13.56055659859552   14.49471637619928    6.91224833750808
C        11.00937462818153   16.18618208081306    4.60854609938221
H        10.23414764583197   15.47631584981381    4.91408529690181
C        10.55028028821732   17.58348713585361    5.03026611930767
H        10.44458536734245   17.63266177367713    6.11339583548190
H         9.58893144333226   17.81490027680546    4.57728935148314
H        11.26836665192650   18.33768685625664    4.71967563537065
C        11.15659602851969   16.08805026049705    3.08861235900964
H        11.49987132986451   15.09621569371667    2.80000106596093
H        11.86990844141415   16.81862753185070    2.71695664948084
H        10.19786612032602   16.27434423940179    2.60972794535351
C        13.60485398238171   13.41030213940665    7.96285275351553
H        12.67671819610783   12.83080080241160    7.92072765330757
C        13.69533530012472   14.05333496689543    9.34915098336110
H        13.68036258225463   13.28741523786115   10.12125755951938
H        12.85411708260319   14.72732470143803    9.50844312701222
H        14.61411859267380   14.62596309731581    9.44607365353779
C        14.76261749794098   12.43792757231967    7.73074214557554
H        14.69652474555877   11.61034120576444    8.43365535966334
H        15.72232730344085   12.92612435370428    7.87485508187659
H        14.72884884400064   12.03590238358007    6.71995914347128
C         8.21442952530924   13.48979322952748    8.29419022941022
C         8.30390870732988   12.93289495499373    9.57092591838685
C         7.17268257450195   12.96362137130846   10.37498247357243
H         7.21262877180442   12.54634263110238   11.36895931950274
C         5.99812184993247   13.53299565882929    9.92291707385104
H         5.12907022362350   13.55282380800614   10.56346337913567
C         5.93353673139999   14.08842180990328    8.65943517109408
H         5.01471178436412   14.54471886828939    8.32654918088255
C         7.03888275167906   14.07546829658229    7.82027300801961
C         9.59420540567167   12.34257399834945   10.08823111205889
H        10.34377863186466   12.35997981923010    9.29067680400784
C        10.12668612381314   13.19218135912103   11.24420605678141
H        10.26607841673873   14.22264348877903   10.91934732766585
H        11.08360297052112   12.80408233089120   11.58557886929784
H         9.43328321967372   13.18611065820853   12.08095276751209
C         9.40471017660573   10.88581028277378   10.51612276829889
H         9.00433559502013   10.29409209381241    9.69495346242026
H         8.72123751761971   10.81067903249916   11.35742050396118
H        10.35979044949971   10.45952900979488   10.81506470526383
C         6.98040054887936   14.72800997113454    6.45925119240417
H         7.88623893078627   14.47363595289532    5.89917043492136
C         6.94530342037589   16.24895291734250    6.63004285509801
H         6.95172488306808   16.73707911790500    5.65810889912836
H         7.81350938434292   16.58543789513224    7.19601077792121
H         6.04972816958217   16.55364074456732    7.16536884618625
C         5.78358624419453   14.23767233325658    5.64267437827274
H         5.83247881566981   14.64461814343993    4.63503937247122
H         4.84531919143925   14.55503411628929    6.08887468560224
H         5.78363129156277   13.15133599052688    5.57658776769525
C        10.41922999635690   17.72591700453170    9.81016151276566
C         9.63194992921538   17.85891833723209   10.96029789135235
H         8.96032481088032   17.05099994069724   11.23396166103267
C         9.66670497174685   18.97727127490071   11.77498425903952
H         9.03566535712629   19.02606773057632   12.65442180409842
C        10.50504327212663   20.03339631328804   11.46756763675963
H        10.53757335665264   20.91212310800985   12.09887042207959
C        11.30059427336644   19.94763135609092   10.33940266560503
H        11.96261727885876   20.76553050685015   10.08132623436135
C        11.25195594545346   18.81864531941882    9.54022967400440
H        11.89253440914302   18.78797093751909    8.66420949209029

