79
CSD_code = PEXYUM | q = 0 | S = 0 | Stoichiometry = C30H40B2CrO4P2 | MND = 8
Cr        9.02608099808763    1.58392582722657    5.07403344198944
P         7.74210491244294   -0.46890614147401    4.74912884771746
B         9.49001493892139   -0.93252494878903    5.41666559189265
C         7.82033980685934    2.65784488672005    5.92801398394965
O         7.10414121126169    3.32783768078975    6.54281467926814
C         8.57321893055896    2.42718494322354    3.47578538229908
O         8.26800576357540    3.14951331221027    2.63065609765570
C        10.19400088519929   -1.69799297463055    6.58224356000889
C        11.36023873425637   -1.18246340336077    7.19247826620425
C        11.93586789313417   -1.82916086013733    8.27613580599871
C        11.42002883479176   -3.00347609189153    8.79727545829738
C        10.30685272067278   -3.54061717163471    8.17338751846453
C         9.70471922859664   -2.91606775189504    7.09293243758378
C        12.04642624446923    0.07897167088039    6.75042552805768
C        12.03617745697085   -3.66670286591470    9.98892544517815
C         8.54843491060714   -3.63739588601420    6.46597757453492
C         6.00291187058603   -0.99007780185635    5.32107522719331
C         5.99234461303271   -1.02304243112940    6.84732033336276
C         5.07807739327625    0.12652012552017    4.82596264947376
C         5.56109183541224   -2.31661620080319    4.70578440158491
H        12.81782120846373   -1.39518324213558    8.72648883954121
H         9.89295851402220   -4.47302771601687    8.53210353427594
H        11.74784778559412    0.39749844296002    5.75515295839021
H        11.81889088652578    0.89074027253468    7.44126151237869
H        13.12657902130867   -0.06409171633985    6.76809993104785
H        13.07505219577838   -3.36830361075696   10.10666522214885
H        11.49659555190073   -3.37910943777838   10.89180501341428
H        11.98521488369420   -4.74984154217352    9.89938436019199
H         7.78818733461327   -3.86229219825490    7.21344172617540
H         8.10826292655369   -3.05247619298996    5.66368463159966
H         8.88956146260340   -4.58760617202926    6.05449748979801
H         4.99326939916798   -1.25669460059377    7.21263669596173
H         6.68436022846993   -1.76661878977762    7.23543841378208
H         6.28154531739599   -0.04965817908343    7.24447397488783
H         4.06253862038858   -0.03967223818245    5.18211117630141
H         5.41496781431760    1.09766098571487    5.18979053009744
H         5.05479254021825    0.15374089106950    3.73680119506380
H         4.50149599576531   -2.47477122602889    4.90323957732015
H         5.70776391886944   -2.30676685740246    3.62576144547022
H         6.10548417688518   -3.16061523011802    5.11991006741024
P        10.16416577645725   -0.28126883028831    3.74976088566596
B         8.58764027389393   -1.18288371370516    3.25038123671431
C        10.35221192455843    2.84071085749616    5.27112599804922
O        11.13826007076293    3.66644216630625    5.46127514549705
C         9.24284365837677    1.17034933893485    6.86378988635335
O         9.24556456253491    1.13806361619936    8.02095572297879
C         8.11295659351222   -2.04244793615854    2.04703557333789
C         7.46180086393101   -1.35458777767085    1.00537280663722
C         6.99225109571211   -2.04416950083925   -0.09695981925799
C         7.14544283303872   -3.42066690740598   -0.21247979095921
C         7.79516199351958   -4.09345771912072    0.80754993656088
C         8.27766083901419   -3.42411720357517    1.92432296327383
C         8.96438377519179   -4.21531913954875    2.99863566011076
H         9.69081467515866   -4.90038724012346    2.56367438086224
H         9.47237284812159   -3.55756657611902    3.70112234111202
H         8.23584691387024   -4.81197183005099    3.54759582724321
H         7.93341599066644   -5.16361259163180    0.73965465292597
C         6.63344049873990   -4.14078192935271   -1.42192493595560
H         5.60973123547176   -3.84201950062164   -1.64072077026496
H         7.24419510028760   -3.89528316684000   -2.29084723044975
H         6.66173845258095   -5.21763108825036   -1.27581483177312
H         6.49546371697785   -1.50048414414742   -0.88832884777234
C         7.29605530679293    0.13294979969328    1.09029733297786
H         6.74976295869636    0.41276486421460    1.99302377008681
H         8.26978503372758    0.62304955100690    1.13394508980099
H         6.75680999473944    0.51635712850271    0.22784499358279
C        11.79094643950362   -0.93751431347050    2.99516874442303
C        11.47583098457466   -1.37041675112361    1.56266598455896
H        12.39040172446074   -1.67268327341117    1.05457775829615
H        10.78228930156189   -2.20830334312540    1.54693165413240
H        11.03220062433205   -0.54864207029972    1.00120700078086
C        12.80134975253871    0.21067024989288    2.96596768341985
H        13.71093137631708   -0.10420162767449    2.45628370237640
H        12.39038434500625    1.06808586200825    2.43359499166152
H        13.07091202661483    0.53042529466386    3.96999933237098
C        12.33843594943925   -2.11407628584054    3.79813181919618
H        13.26228538314071   -2.47013694821155    3.34374529499708
H        12.55194626322321   -1.82919029608747    4.82511998373696
H        11.62943987754064   -2.93951257903588    3.81254754589684

