114
CSD_code = PEXZUP | q = 0 | S = 0 | Stoichiometry = C66H23AuF18N6 | MND = 4
C         2.49497084169876    4.99871200477989    2.20919817788955
C         3.03495763855576    6.32463152219812    2.24199533000883
H         3.96367391580874    6.62546297302872    1.79870449598327
C         2.15042339463229    7.08946232205400    2.92615090061181
H         2.23117991012926    8.13236987660471    3.16263591101555
C         1.06503090197299    6.23155310583867    3.30965348649106
C        -0.04649550676772    6.64287218526932    4.04684129276213
C        -1.05671874789811    5.80809400961337    4.52570395596454
C        -2.26455503880726    6.26746867472051    5.15197430824539
H        -2.52155641479767    7.29400525654686    5.32640492928949
C        -2.99994034031111    5.16800444293087    5.44394498089841
H        -3.96053631821912    5.12250325788418    5.91810399532585
C        -2.24263360820307    4.03515762211691    5.00165673093754
C        -2.61224003152811    2.70506735153254    5.18617721828109
C        -1.80339758879937    1.62203483259717    4.85648055443027
C        -0.53261945747360    1.63043396313003    4.13202369774898
C        -0.10883703446801    0.34081751267869    4.18024361125303
H         0.83055722844264   -0.06485105216117    3.86120385675197
C        -1.13063894235781   -0.42014174250206    4.88439248173806
C        -1.21370033309339   -1.77631318469421    5.22691112415078
C        -0.58010897862289   -2.86365284125174    4.63146263768809
C        -0.70626245472252   -4.21845505548852    5.06540450566473
H        -1.20557755900650   -4.52948132057071    5.96182134262111
C        -0.08843316362343   -5.01503113182937    4.15037351163015
H        -0.01241704787617   -6.08406478961066    4.17071212254779
C         0.43812327716491   -4.16678813937626    3.13559019259586
C         1.05543415190831   -4.53522908848864    1.93861412024929
C         1.50865484113062   -3.61950541733582    0.98281115973114
C         2.16693923824666   -3.98560947165801   -0.26174112003424
H         2.31655116109985   -4.98535420786426   -0.61890980090253
C         2.54203212833224   -2.82939868115463   -0.83742778002928
H         3.04663164031089   -2.68083900518333   -1.77185539852683
C         2.12474783953815   -1.76650976067041    0.06835919336774
C         2.50521483684333   -0.43877503542429   -0.10732988939439
C         2.19165466451404    0.67244427085409    0.68796595840972
C         1.08731770132457    0.92711505063083    1.59920328274041
H         0.26867163999549    0.24916895760290    1.72983638651183
C         1.27036976045012    2.17078581757456    2.11338655054411
C         2.48110962818493    2.65982884007513    1.45334541431917
C         3.06965839576512    3.91606891800574    1.54706798423539
C        -0.16572819078081    8.08721598924566    4.34497957288013
C        -0.31461590101831    9.03850557178730    3.33670095021052
C        -0.42882048301035   10.39227817943548    3.59375519819532
H        -0.54906161375220   11.09831079600520    2.78873123256466
C        -0.38683332674850   10.80784747875243    4.91304302896958
C        -0.23932521091827    9.91403787192568    5.95912900649626
H        -0.20403495528475   10.25123178582804    6.98189214580474
C        -0.13470842822696    8.56988890260823    5.65267136354762
C        -3.91268479469750    2.38336780948144    5.80990747714042
C        -5.10991786223642    2.64900605873820    5.14973840854048
C        -6.34394629079510    2.27939842566313    5.65129577823194
H        -7.24910201402171    2.49680011533111    5.10868030262755
C        -6.37366853813042    1.61201892582258    6.86249910442938
C        -5.22071792568491    1.32935821039496    7.57235478169369
H        -5.26462497337299    0.82062139319784    8.52120063682471
C        -4.00914556177847    1.72021129547607    7.03121589966386
C        -2.20482688472855   -2.03380514429991    6.29669924366538
C        -3.39307494725226   -2.72234226315847    6.07195988655889
C        -4.37358767791503   -2.85606397280910    7.03761272911994
H        -5.28968905703466   -3.38268335835874    6.82705654597376
C        -4.14629136611473   -2.27762209823771    8.27339374743273
C        -2.97792098413850   -1.59644340953788    8.56480058251363
H        -2.81095168630423   -1.15391033568987    9.53279847638125
C        -2.03144271478498   -1.48058046054412    7.56506578050916
C         1.23864947317841   -5.97836634095708    1.67816750485064
C         0.58692777867057   -6.62725821536830    0.63047516120141
C         0.74864812400636   -7.97467820347602    0.36616875552447
H         0.22455966110871   -8.44351459891009   -0.45022960480046
C         1.59915303529145   -8.69827021930259    1.18336903243937
C         2.27268779039846   -8.11385121073713    2.24148349625415
H         2.93388430912711   -8.68843357433664    2.86883739590179
C         2.07526995749412   -6.76451205735359    2.46860605533360
C         3.46148110430982   -0.10186216431220   -1.18600848032810
C         3.09340619983484    0.78980375021180   -2.19278735077750
C         3.97290633313489    1.21923324851402   -3.16788697336648
H         3.65295765013163    1.90982726965977   -3.93039067204665
C         5.27311534706462    0.74974895934660   -3.11705178313570
C         5.69816477741827   -0.13907387213474   -2.14658701477226
H         6.71526582488037   -0.49364503016881   -2.12037232536376
C         4.77889622492264   -0.54922026294186   -1.19808919133197
C         4.36564778013367    4.07844928910111    0.85552314455960
C         4.49495359873034    3.92425060629824   -0.52327113881025
C         5.71864786248691    3.97381190542335   -1.16624863407909
H         5.78723939182795    3.85499335945298   -2.23499636745129
C         6.85053364833478    4.18109554221182   -0.39872352231286
C         6.78565652008872    4.35336402466364    0.97218404034683
H         7.67439097281637    4.51629386183276    1.55920896568330
C         5.54075164612260    4.29546884433624    1.57048622502571
N         1.30032469229286    4.97399213880807    2.85679671424582
N        -1.07053645747662    4.45322255013720    4.45542514548820
N        -2.12683987812864    0.38833488412320    5.27107372667579
N         0.14877703981068   -2.88308014059450    3.47990361761969
H         0.43027073004766   -2.12035121772461    2.86782657686035
N         1.47592761184883   -2.28003740755024    1.13406693688040
N         3.00033119395841    1.73735055829842    0.62781678055002
F        -0.36749354045831    8.62672000001070    2.06219126345118
F        -0.49236734318791   12.11461768366116    5.18556541875768
F         0.02056257770028    7.69860939322569    6.65949603892823
F        -5.06878415553462    3.28330288100280    3.96683622755229
F        -7.55689641086887    1.23459053171852    7.36658798955921
F        -2.90090906912996    1.48893728519711    7.74295961373734
F        -0.88732786864656   -0.84710968771484    7.83838348440667
F        -5.09038320208961   -2.38044789486085    9.22104703072729
F        -3.61021288693309   -3.26587603581207    4.86354024957519
F        -0.24826377919518   -5.92234408859039   -0.14535842996881
F         1.77338875915914  -10.00435278760717    0.94488099994158
F         2.72906612371542   -6.18776628964024    3.48768318750696
F         5.18806253461829   -1.39838214075586   -0.24260593377234
F         6.15205287641552    1.17344908320064   -4.03903818453304
F         1.82822978803951    1.21952608557135   -2.24086296459765
F         5.46881963586105    4.44418065177245    2.90343353922571
F         8.04664272092275    4.22469258779403   -1.00205880859659
F         3.39826596055699    3.77090390951235   -1.27269070447995
Au        0.24628255446645    3.27655194572031    3.38326047200205

