45
CSD_code = PEXZIB | q = 0 | S = 0 | Stoichiometry = C17H21N2O2ReS2 | MND = 5
Re        1.68591845676806    2.51359482046893    3.20261131100356
S         1.98866324355767    0.22531023022898    2.90979919593169
S         2.14258445602385    3.68776958025371    1.25968518163007
O         1.44141091475774    3.40437165175241    4.61965829040633
O        -3.74830784414368   -1.53806653791909    3.90883869024184
N         3.82536746866755    2.39736425183917    3.59762017620342
N        -0.10833360462277    2.41457708460269    2.47963314004893
C         3.68755756374572   -0.02838182241796    3.52933087404455
C         4.46607039084442    1.23425581820297    3.71190627527584
C         5.82324817529031    1.17758315169064    4.01898758390873
C         6.52387004697620    2.35259766233316    4.20957777859174
C         5.84370517544543    3.55769202797160    4.09263258434336
C         4.49868237607668    3.53232042968353    3.78630688946331
C         0.49438534532202    3.61992759897839    0.41953021778566
C        -0.53120911981178    3.44842064638208    1.54499247280932
C         0.28112062447483    4.91759932834885   -0.34498303562775
C         0.49294229908734    2.41173353999461   -0.51050918686561
C        -1.04067663187767    1.44548748293375    2.82084866902499
C        -1.93288403601695    0.86871564410148    1.90837140307259
C        -2.80945809493650   -0.11530449270100    2.30555382979483
C        -2.83668859336928   -0.56235273396671    3.62662421957175
C        -1.95666455709516    0.00310195593210    4.54428300084518
C        -1.07798038599308    0.98835087473686    4.14256301288354
C        -3.81453986016143   -2.02924270523213    5.22446851813733
H         4.18610099086079   -0.69092316450476    2.81822966396252
H         3.60950859959098   -0.55173508878389    4.48660838631952
H         6.30769829526374    0.21712921617660    4.10483024506901
H         7.57718166904203    2.33117194384394    4.44439006253788
H         6.34714195042053    4.49963762030203    4.23610303272035
H         3.92338641179517    4.44179202765245    3.68215854099170
H        -1.51676748078861    3.22666654092400    1.12800606170832
H        -0.59843489278729    4.39317246609637    2.10571143063782
H         1.04405133034528    5.03060379913282   -1.11197774621636
H         0.34138395768678    5.76890191590226    0.32906388325282
H        -0.69754648133192    4.91593455827690   -0.82202593833642
H         0.63119970601473    1.49630003533567    0.06550532102365
H         1.30100849694397    2.49104474539117   -1.23509379543910
H        -0.45158947260145    2.35100190541829   -1.04964858531834
H        -1.92302325472647    1.16592129236988    0.87065859366491
H        -3.48867378982483   -0.56635950380958    1.59907171136757
H        -1.95045131834294   -0.31088896755514    5.57608932969317
H        -0.40605936425602    1.44304438267503    4.86085366792565
H        -4.59568339058982   -2.78815463444051    5.21729155975046
H        -4.08326610661655   -1.24126561736337    5.93571888123472
H        -2.86844966510678   -2.48732096123930    5.53112460092691

