114
CSD_code = PEYBIG | q = 0 | S = 0 | Stoichiometry = C66H21AuF20N6 | MND = 4
N         2.52799195793571    1.41791753976542    0.41111597002625
N         0.94209296871645    0.57307261059707   -1.67300383628147
H         1.10809711333725    1.34816473637407   -1.03551764573334
N        -2.05295926629156    3.43395851884244   -3.12782279908162
N        -3.37007223735345    6.64469677028379   -0.62773054709622
N        -2.38496408387316    6.78787791571045    2.09968157359455
N         0.95496988279071    4.35097081055751    3.20958916393641
F         0.65769281511517    1.03692965049068   -5.34933623962201
F        -0.31781997957012    1.02304573497252   -7.85906840687152
F        -3.00424658701777    1.29977582036614   -8.28881532849465
F        -4.69458807564799    1.52698489001702   -6.15916653980211
F        -3.73951783116975    1.38127734359823   -3.64969887546547
F        -1.44018641576884    5.27483917208597   -5.03523962238643
F        -2.34899532235111    4.58480687269472   -7.47336521682770
F        -5.03093600915746    4.40572907182123   -7.93930566075487
F        -6.79126175467405    4.82588474069198   -5.89042701092381
F        -5.87704819104598    5.36224576306561   -3.41201854551589
F         0.08187952506777    8.22544280758566    4.83745846539191
F         1.41968509106088    8.35260051084892    7.17566147979224
F         1.92129471637428    6.06947615256960    8.59233041322522
F         1.01434768956997    3.67289580848361    7.65737043318773
F        -0.45183176670223    3.56524085009044    5.40161359548479
F         3.45378272934570    5.43642682768992    3.42495834054673
F         4.16637582644997    5.71158827905868    6.00481716589459
F         4.43587294375118    3.51311764851619    7.59771962879414
F         3.88019098490153    1.03418105741090    6.58739345561655
F         3.02182168211385    0.77029884083321    4.04979044438834
C         3.16201817753660    2.00550188170389    1.44193967889167
C         4.46903108637550    1.40058939234410    1.65451747516276
H         5.19035921050288    1.73199802868799    2.37589401870333
C         4.57443066515932    0.40358416472648    0.75611239689586
H         5.39852436653553   -0.25899316517268    0.58255021567110
C         3.32365759710966    0.39886364689594    0.01501787813525
C         2.96458780342481   -0.57107553644979   -0.92770232043061
C         1.79265980897804   -0.49108055327975   -1.68852414202260
C         1.30150513867170   -1.41740705706249   -2.64804669296087
H         1.72620829293498   -2.37936398810263   -2.85414785834358
C         0.20589012654523   -0.85365213910607   -3.23308241616936
H        -0.41284023327556   -1.28237918214832   -3.99682283805278
C        -0.00942555624420    0.42008197373030   -2.63150317074626
C        -0.95890933435320    1.35964336748072   -3.05228741759925
C        -1.36611474152937    2.53270190178191   -2.40950274048048
C        -1.20201397555090    3.01216541023667   -1.04323242229486
H        -0.79300954611577    2.42466888643411   -0.24568463113864
C        -1.74750975324815    4.25578966634884   -0.98242984931221
C        -2.30470577350823    4.46818890017320   -2.31892130068644
C        -3.12726574808134    5.49918707720595   -2.76903184373168
C        -3.58962863367694    6.53703289243679   -1.96446095680159
C        -4.39400760683698    7.63315999859681   -2.41564497560529
H        -4.68206812302012    7.81080987237949   -3.43291652774931
C        -4.67901417168844    8.38221505588432   -1.32430778507922
H        -5.24287560884866    9.29235068603767   -1.27633406198108
C        -4.04307362278269    7.74739082464770   -0.20409056781203
C        -4.12839215754052    8.21080805833372    1.10915710820160
C        -3.38986048803207    7.69959580703252    2.17854752367526
C        -3.57857203962300    8.09048138838237    3.54687431131163
H        -4.33223987610321    8.76840866133260    3.89457650209733
C        -2.65668129207371    7.42043032848958    4.27882415166892
H        -2.50870548037039    7.44645801143295    5.34036880180843
C        -1.90513202643921    6.61953184733478    3.36035534001596
C        -0.82905391645728    5.80580899087287    3.70313237776569
C        -0.15530912666862    4.97966391817390    2.80629822817026
C        -0.40624731399523    4.77069197046579    1.38007920934417
C         0.65225953846143    4.02642400796432    0.96347340880991
H         0.93124537944421    3.73635267586890   -0.02866130595860
C         1.46572039787205    3.73511900273256    2.13366921521625
C         2.62005141141059    2.96404070034676    2.30521276719136
C         3.85189610095731   -1.72538858360778   -1.13720462168621
C         4.21921193968451   -2.53458978555430   -0.06355585455801
H         3.83269846834389   -2.31621113753488    0.92113174710516
C         5.04789773098121   -3.62315619837252   -0.26224760576474
H         5.31950387593044   -4.24848994286855    0.57491729978374
C         5.52876445464439   -3.91114360452501   -1.52917397883670
H         6.17988171320230   -4.75857487756277   -1.68117231103399
C         5.17293105641078   -3.10778452348748   -2.60023834646245
H         5.55031472429978   -3.32474933262640   -3.58829237413090
C         4.33507768794614   -2.02468599366280   -2.40960600189576
H         4.07217346437858   -1.38713657994911   -3.24096347840451
C        -1.50787723267088    1.21768683359210   -4.41794766245271
C        -2.87622608233092    1.33883325119908   -4.66508554550414
C        -3.38105454206556    1.37595766504745   -5.95877498348334
C        -2.52194570113070    1.27076249222737   -7.04960369951730
C        -1.15541627947272    1.13182357622230   -6.82757598187663
C        -0.66588650171598    1.11851548202181   -5.52584250878002
C        -3.63078982800667    5.33425021323283   -4.14581449377438
C        -4.99545667566358    5.21464294142869   -4.40639880791651
C        -5.47836232829885    4.91695753575628   -5.67642572734987
C        -4.58478730598088    4.70400002419085   -6.72166362505297
C        -3.21751304710476    4.80755497234014   -6.48102343170378
C        -2.75378735240656    5.12748904325295   -5.21053265315421
C        -5.06211343319457    9.31840477358973    1.38496403897038
C        -6.41432054501699    9.19100864379050    1.07426944243469
H        -6.77451639000811    8.26835743814050    0.64295594465035
C        -7.29155972425665   10.22644946159731    1.33870301136030
H        -8.33903534604410   10.11382800302972    1.10232944836955
C        -6.82947924771710   11.40373037751813    1.90406337651100
H        -7.51517191595069   12.21264593518702    2.10587917634737
C        -5.48514297673256   11.54034317200284    2.20948377123857
H        -5.11967955747905   12.45792314982367    2.64565177901186
C        -4.60570012448389   10.50347967846094    1.95774425473900
H        -3.55518739455724   10.61285404415630    2.18471800624968
C        -0.22040382375505    5.89138878510644    5.04448380252663
C         0.26955779003541    7.10078107551039    5.53578424790692
C         0.97846310689900    7.17589950229568    6.73018239681731
C         1.23397408805852    6.01538491062025    7.45429128346758
C         0.75991688402101    4.79611651772011    6.97799429503320
C         0.03587618955025    4.74263323552320    5.79273407018063
C         3.20742301445687    3.09484849473146    3.65595891937517
C         3.51086910628398    4.34661944024445    4.19238141901177
C         3.91514039636450    4.49312090273434    5.51322442356906
C         4.04351876490091    3.37549935603172    6.33366990433741
C         3.75838255230945    2.11581105270482    5.81695706517887
C         3.33619448615621    1.98997760045817    4.49724955708022
Au       -1.95531550057891    5.58699685799679    0.46227237326015

