56
CSD_code = PEYBOK | q = 0 | S = 0 | Stoichiometry = C25H29PZr | MND = 13
Zr        4.57853570723357    6.24087253714530   -0.04424814736393
P         6.26491349467220    6.00010398259803    2.13331169518416
C         3.13642155913175    4.64618488508217   -0.20254070950095
C         4.00881005135253    4.31768319974105    0.92109854308085
C         3.89794305575294    3.11231610495499    1.49045392486845
C         2.88948906153419    2.11540916329374    0.95167306756625
C         1.63061456327558    2.80540097957108    0.42297547847038
C         1.97980592999503    4.00206775133264   -0.45395622376938
C         1.04338271292020    4.46192872578485   -1.47247828533812
C        -0.27183810562305    3.99728689393361   -1.56374717424608
C        -1.13238255259910    4.48100847483209   -2.53147611603714
C        -0.70865408301030    5.43863242793064   -3.43652169417617
C         0.59229770892434    5.91453503237554   -3.35991568545819
C         1.45270777928985    5.43667593543481   -2.39468136862255
C         3.26414381088505    8.27817262377944   -0.57350782000549
C         4.33739867874372    8.74231295528103    0.21763891004606
C         4.16444598673033    8.24001816507947    1.52249742725829
C         2.99184262395845    7.45775503930295    1.54131331819091
C         2.42819458398271    7.48768751235675    0.24786466411302
C         5.25116467940120    6.50893530847924   -2.43859437855791
C         6.26017412605478    7.15949481560228   -1.69763458360064
C         6.96086531824844    6.18249850429448   -0.96342260299043
C         6.38840654858824    4.92457167016502   -1.24994443551998
C         5.33540203613921    5.12422861652134   -2.16650216014623
C         7.58626310001755    7.08759189160869    2.86789399839668
C         5.28837508729017    5.71077898286658    3.67244433145127
C         7.23948645432776    4.43325697363255    2.09544017868350
H         4.52098372565921    2.75806997451176    2.30976944404865
H         3.36127197788987    1.55415872233570    0.13358949534101
H         2.61655901145679    1.39798351799596    1.72931867221241
H         1.04497846675463    2.07813952805797   -0.14184705819736
H         1.01964306514371    3.15520610906901    1.26564790443885
H        -0.63636052159476    3.26141783298338   -0.86277783653648
H        -2.14615627225285    4.10784274072861   -2.57880387561983
H        -1.38359301796517    5.81217134574147   -4.19267599379218
H         0.93192980672568    6.66285710763705   -4.06306611569105
H         2.47460523517009    5.80629713516366   -2.33354316405114
H         3.03167846570818    8.59988853618813   -1.58289444620323
H         5.07165350326115    9.48345172364043   -0.07611514873266
H         4.74319690348496    8.53925452204737    2.38842690042265
H         2.53703132401000    7.00630432634245    2.41456282214810
H         1.46014937716704    7.08930184806805   -0.03005258710846
H         4.63418940914983    6.96608301389554   -3.20456577239175
H         6.54832392727056    8.19918880362109   -1.79855241039600
H         7.87571471689040    6.35453172347087   -0.40752559147174
H         6.76098003287336    3.96119064089321   -0.92517061579122
H         4.77542990518502    4.34158350931105   -2.66458124080015
H         8.01223334164989    6.63630833227718    3.76332962130479
H         7.16435010217426    8.05784715970070    3.12451099055926
H         8.37802558735323    7.24227798200411    2.13638470483291
H         5.92422358873407    5.30618527490186    4.46030292300256
H         4.48530433279943    5.01104392128234    3.44378168812503
H         4.85148542115007    6.64770420755889    4.01467953489520
H         7.61958522412272    4.19524674922184    3.08923374897985
H         8.07935451646700    4.53909906686479    1.41026845247631
H         6.59611892630958    3.62955549160428    1.74253080197606

