37
CSD_code = PEYGIM | q = 0 | S = 0 | Stoichiometry = C10H20Cl2RuS4 | MND = 6
Ru        7.51830384305678    5.56566087554857    9.40385736809423
Cl        8.02631555419129    3.46235741601246   10.40325530087599
Cl        5.59701096720254    5.87740983013963   10.77848279512665
S         9.42769481332859    5.38527737517526    8.07310882866365
S         8.82679892247616    6.45504251735780   11.10530487174280
S         7.05218895049729    7.57427169943070    8.30990821103668
S         6.05442461947359    4.47854028583477    7.96390249713257
C        10.64994102319897    5.29135831556758    9.43489880360826
H        10.42432216061602    4.38687490310129   10.00592670400508
H        11.64654194005868    5.24484337317785    8.99453114324176
C        10.48112943637397    6.53074514009802   10.29453982028931
H        10.53718862949879    7.43850445264140    9.69186553602856
H        11.22776117372828    6.55696420212365   11.08855176753409
C         8.45257513773974    8.20581785678477   11.46900051776729
H         7.63603957255265    8.12756634242230   12.18812865585642
H         9.33581024544187    8.60104678670110   11.97122720551261
C         8.04156849068711    9.11026450652458   10.31328001729847
H         8.81979696078822    9.11898257983622    9.54296781577482
H         7.96786481633163   10.12489936563437   10.71401608274799
C         6.70474460518563    8.73711276303592    9.67153508822659
H         6.21883279921240    9.61069517335890    9.23793175853130
H         6.03986970791099    8.22220148541324   10.36972201711466
C         5.39355798682112    7.11516992322886    7.68133021813655
H         4.76017048900987    6.93140346996395    8.55316162893367
H         5.01511777969882    7.94485834603688    7.08324966569405
C         5.54674891989388    5.85588039970910    6.84809197264991
H         6.30825152314277    5.98406864326666    6.07733831772695
H         4.59598559036279    5.57092619329864    6.39704124081338
C         6.88284837775393    3.30348757530510    6.83673568782950
H         6.91662727500205    2.39005881077063    7.43214037309021
H         6.19875399513450    3.16076582782046    5.99995975199682
C         8.28021842909260    3.64843182488084    6.33571812474205
H         8.26985215585918    4.61226608857206    5.81609805648892
H         8.55244188581880    2.88502809088573    5.60180251899518
C         9.34735197360405    3.68018389124263    7.43042623592532
H        10.33056001649698    3.43669993272325    7.02881454615632
H         9.09458923275737    3.03243373637499    8.27374885461163

