112
CSD_code = PEYGEH | q = 1 | S = 0 | Stoichiometry = C54H52NOP3Rh(1+) | MND = 4
Rh       14.42864868111294    5.52920261617328   14.15096654763188
P        14.40199550698826    7.28398342766300   15.61371713019502
P        15.68433936050947    4.19322331377047   15.47621235563943
P        13.57121690215043    3.70249324963888   13.06044714583532
N        13.45500839847807    6.78035177212842   12.71241016475630
H        12.57171614784012    6.36016736989754   12.40839703027296
O        17.18243304793252    6.23090353215176    8.60445340765569
C        12.66519494659564    7.87109864883245   15.48630164610000
C        11.78464870929117    7.91333515444675   16.56152694701387
H        12.12089393730379    7.62850411142829   17.54754145426904
C        10.47554492296950    8.32592833866814   16.38219620759055
H         9.80626057868210    8.35982912127852   17.22840059098505
C        10.02774884412145    8.69580136084590   15.12626029560639
H         9.00688499828640    9.01478345156215   14.98404740685482
C        10.89707151283887    8.65753423091546   14.04917648233471
H        10.55098326512815    8.95186288899967   13.06854258375976
C        12.21215591809022    8.25402787160615   14.21834012961937
C        15.23465197605442    8.91665924760038   15.56339420084136
C        16.38112561874977    9.13863527970057   14.81145671884340
H        16.81203733206900    8.33942861701516   14.22619734160007
C        16.98357440004599   10.38489233106837   14.80319060365659
H        17.87502224024731   10.54558245439122   14.21552079482367
C        16.44328542981502   11.42105196303141   15.54455526754374
H        16.91263124122739   12.39273794806879   15.53865759445319
C        15.29595794248417   11.20901043422345   16.29371099969988
H        14.87093349138617   12.01538592656211   16.87212182449440
C        14.69223649957205    9.96644396906016   16.30270960264673
H        13.79777584207496    9.80385756979643   16.88801753297548
C        14.52130672734984    6.85778928509248   17.37890449774827
C        13.77833808929129    5.75438343244753   17.79368586321801
H        13.16028670136078    5.23687363800507   17.06863805594014
C        13.81292275973869    5.34136877540495   19.11120590902030
H        13.22046325861639    4.49587584041344   19.43004129590725
C        14.60806743585319    6.01717897813085   20.02401838034578
H        14.64052389570085    5.69583119959407   21.05386842313476
C        15.36204266148966    7.10277692480255   19.61264569166626
H        15.98630377227083    7.62584524609120   20.32105804880978
C        15.32118335089969    7.52703380899141   18.29546114876072
H        15.91805629241964    8.37193019133822   17.98571098563878
C        13.14910636276491    8.18854256129418   13.04691299869975
H        14.09151267840139    8.69571687392621   13.28544362330467
H        12.70363527821969    8.69042917953868   12.17806074376553
C        14.38531540830830    6.68960758233220   11.62004339932880
C        13.95292446676005    6.65012483924896   10.30384676089974
H        12.89745172591539    6.71246549126342   10.07999866218387
C        14.85489059721322    6.50697007440890    9.26420263935860
H        14.48230449416894    6.46234759030275    8.25430985289495
C        16.21762246077541    6.41375625778006    9.53174943290056
C        16.65687212693819    6.51719469171024   10.85556040039811
H        17.71711302510800    6.47430002539278   11.04766100118682
C        15.75191830478464    6.66102225241542   11.88368356788081
H        16.10371682813000    6.76383212598032   12.90956347918407
C        16.81359862928194    6.11981967500555    7.24795732157716
H        16.14772006860206    5.26697250552779    7.08557232349777
H        17.74279715892388    5.96323559555012    6.70345504199379
H        16.33391074392127    7.03419497203443    6.88698095897501
C        16.80494508564072    4.99183804313210   16.68245966892771
C        17.50293550156323    6.08132205539078   16.16876872201370
H        17.32763770747689    6.36309588376003   15.13741436613470
C        18.41113994028839    6.77539434771746   16.94095325491059
H        18.93945853027332    7.62283423966084   16.52977477063374
C        18.64266133952558    6.37469839697354   18.24743450919069
H        19.34858366018919    6.91216772750388   18.86180848653391
C        17.97401669911324    5.27669090262577   18.75864182514275
H        18.16377377693520    4.95380016760564   19.77133389755699
C        17.06072504150632    4.58160030037183   17.98277163599474
H        16.55873248208904    3.72734009612856   18.41088298013025
C        17.02853727115923    3.35909600820675   14.55346271949498
C        17.24007819239657    3.69339612588200   13.22206008305256
H        16.56253287502818    4.38936380014125   12.73974387604320
C        18.29194055965736    3.13733095858906   12.51562491623561
H        18.44579383305271    3.40400923640586   11.48012566264947
C        19.14434554038356    2.24347870899858   13.14121430905126
H        19.96540320903313    1.80521294517863   12.59491925517131
C        18.94902925067145    1.91838931661044   14.47505140966684
H        19.62141455822375    1.23106926991579   14.96592940069894
C        17.90263810589601    2.47865897725828   15.18380309390675
H        17.77367082644002    2.24130376056689   16.23061921373968
C        11.75861307200757    3.63851188237486   13.29327596925274
C        11.14583903156645    4.60379159314918   14.08563812417625
H        11.75218971084163    5.37572863509901   14.55557087408316
C         9.77807585520746    4.58046276363765   14.29169321167373
H         9.31468944770593    5.33939454921025   14.90460438266160
C         9.01237732192652    3.58280747333576   13.71211983309663
H         7.94514077679882    3.55937439976690   13.87029994434202
C         9.61700101937057    2.61000485884854   12.92995729683628
H         9.01968368143068    1.82967168539552   12.48290932968132
C        10.98297405774246    2.63505690631543   12.71849511889199
H        11.44939837386133    1.88213800932581   12.09845221202103
C        13.69365637197242    3.54005994289600   11.24170313088126
C        12.65964146048634    3.93450300235068   10.39819833170762
H        11.73793286884649    4.32010148112550   10.81350641928359
C        12.78728983641300    3.80744114718383    9.02670430550852
H        11.96870360012890    4.09602827359846    8.38398996621578
C        13.95899224232512    3.31416993156959    8.47927794125017
H        14.05444916314612    3.21313163297679    7.40845511152570
C        15.00261752923338    2.94135964695666    9.31052607136693
H        15.91903650755471    2.55476564127684    8.88996792241985
C        14.87054411056277    3.04998509529245   10.68198920550156
H        15.68163963379766    2.73917384077256   11.32378323695321
C        14.88531099187139    2.83004963396511   16.44380156580620
H        15.52593919002586    1.94521027046990   16.42935501972611
H        14.81939304126182    3.19689984198036   17.47040961437191
C        13.47331347111107    2.47991906553002   15.97914910646022
H        12.92121815521783    2.05581668291990   16.82154961309070
H        12.96026699014715    3.39939721451382   15.67652533155428
C        13.40732266322838    1.48513155865704   14.82665631839047
H        12.35456009056188    1.27091751970932   14.62717984497134
H        13.88189630644318    0.54604946975465   15.12371209767037
C        14.07081717632767    1.98298677941082   13.54599769135511
H        13.83317877003925    1.30457969589183   12.72093219236589
H        15.15822049881555    1.99185279171565   13.66790509202092

