45
CSD_code = PEYGEI | q = 0 | S = 0 | Stoichiometry = C12H24Cl2RuS6 | MND = 6
Ru        2.81933370598003    5.98740916144388    4.49716871074836
Cl        4.68518434394457    5.99709896854144    3.00830128701894
S         2.97964674225822    3.62099582137415    4.32424165671007
S         0.44151233619251    3.20020551764502    2.67444778805717
S         1.53301951725643    6.08319764933071    2.50707207524776
C         1.57382606746815    2.81341175157026    5.18180666406244
H         1.98004917417020    2.07379471174902    5.87083052425058
H         1.03956262577016    3.58741279792023    5.73654100337196
C         0.69596313999401    2.14803841689496    4.14061701068670
H        -0.27880947454978    1.88555608831354    4.55215410881906
H         1.17439752953525    1.25423080356780    3.73997658284783
C        -0.56664759558548    4.54625059967658    3.39283713676281
H        -1.62006985202197    4.27993038575690    3.29690521637314
H        -0.29472358037127    4.65338733402268    4.44308817674576
C        -0.27569999171042    5.84573787260812    2.67913047714392
H        -0.69550134826444    6.67650601502780    3.24373654250748
H        -0.66243981089035    5.84181078277261    1.65904381450006
C         1.52616947715224    7.88164944626166    2.18288279164054
H         2.49529392474233    8.08708132320412    1.72501196731612
H         0.73328965655457    8.07607301023837    1.45962188819432
C         1.33726477387419    8.67977807343918    3.45251767037543
H         0.41798462179680    8.39995801893859    3.97078771566121
H         1.32614561610227    9.75357548737910    3.25973772575998
S         2.65791880256913    8.35382688865903    4.66974711063756
S         5.19611449302489    8.77456683063900    6.31967463939469
S         4.10473925339882    5.89164548099931    6.48756983509947
C         4.06373971258142    9.16147828855043    3.81226522782561
H         3.65751222167690    9.90111309798211    3.12327208005833
H         4.59804415608146    8.38756473496578    3.25747449154109
C         4.94163129692360    9.82673562979687    4.85349990441803
H         5.91640026142612   10.08920528050981    4.44194343816530
H         4.46322764942968   10.72054950048062    5.25415845911639
C         6.20438502582124    7.42857348795774    5.60135582981526
H         7.25780810401985    7.69487684608913    5.69728355036329
H         5.93249551097687    7.32149710882533    4.55110498598731
C         5.91339602290687    6.12904276288854    6.31497409605460
H         6.33307785771642    5.29826973519224    5.75028258948595
H         6.30022330554561    6.13287006928635    7.33501726626772
C         4.11144768837509    4.09309020189058    6.81120784531713
H         3.14234351314746    3.88761048085977    7.26909427771059
H         4.90433315180261    3.89854260786859    7.53442427317045
C         4.30027634886703    3.29502142377425    5.54151186552854
H         5.21958528576658    3.57478054327630    5.02325734694340
H         4.31134810478927    2.22120903303861    5.73424396123891
Cl        0.95160063375459    5.97563992879284    5.98427839105871

