49
CSD_code = PEYHGP | q = 0 | S = 0 | Stoichiometry = C28H18HgN2 | MND = 4
Hg       11.23213526365870    5.68031912896779    2.93487153519229
N        11.92724085668894    7.95226282594990    1.80868816097050
N        10.02391933666413    7.85540885710215    3.78611230542384
C        12.90056805602639    5.60874181400949    4.25749272131080
C        13.88783839427393    5.59044823145057    4.96257575155824
C        15.03960980373495    5.56952456130811    5.79173146648577
C        16.05219817682547    6.51283552102563    5.61321408032951
C        17.17423645154034    6.48648597873177    6.41867771077141
C        17.30121506094099    5.52467325084196    7.40824964996339
C        16.29871211052529    4.58528531869924    7.59040114931143
C        15.17324339448427    4.60336392414655    6.78955555575926
C         9.66752407315486    5.09728005833715    1.61309437936293
C         8.76835748415696    4.80626142050379    0.85217129410948
C         7.71900196068896    4.47305397958776   -0.04339085474794
C         7.67510675779216    5.04586859446720   -1.31505547365918
C         6.65315702180868    4.72259614536992   -2.18641713289428
C         5.66561862697063    3.82882974756375   -1.80360409512218
C         5.70413715835123    3.25639599641685   -0.54207254301928
C         6.72252880945525    3.57314163430521    0.33610932122979
C        12.84265496744575    8.00053375516742    0.87098639704807
C        13.26883188665271    9.18780356874858    0.26809037885321
C        12.69918559355554   10.36870648306816    0.67311723989731
C        11.71392377995308   10.34790883435609    1.67401862166354
C        11.35785452907459    9.09344727643892    2.22334108252547
C        10.35396016994969    9.04175261681861    3.25471564614623
C         9.10291923403801    7.80895746425200    4.71844998342537
C         8.43501492073694    8.93815707461133    5.20153847972119
C         8.76013295152871   10.16446398342777    4.67874974858158
C         9.74307415153023   10.24557595830881    3.67864486258699
C        10.12935849854178   11.48617028178136    3.09704383964145
C        11.07933934762728   11.53579244600914    2.13521665355381
H        15.94819979163335    7.26054217434455    4.83933057820137
H        17.95606597523397    7.21931527333738    6.27548878721465
H        18.18037760301415    5.50692730734022    8.03604401567147
H        16.39731916077111    3.83419269695125    8.36144036592382
H        14.38931927939672    3.87220648488718    6.92635858165706
H         8.44863556947676    5.74183196018517   -1.60802039009597
H         6.62472665681249    5.16897871377813   -3.17063089810427
H         4.86763861532602    3.57850938805478   -2.48768710333962
H         4.93469376122773    2.55847326006018   -0.24313268632521
H         6.75733028529357    3.12844458531237    1.32053220646577
H        13.26789956603617    7.05140893507808    0.57393515742212
H        14.02823705260630    9.16192483911492   -0.49731630431286
H        12.99328094037053   11.31298024977241    0.23691719720101
H         8.87407335814193    6.82750849734018    5.11121808454229
H         7.68448110551762    8.83381332046143    5.96901616624877
H         8.27484503526100   11.06768785593919    5.02096487246217
H         9.64335191117256   12.38556820131746    3.44653891398442
H        11.37642550433903   12.47613952494514    1.69388453919191

