55
CSD_code = PEYNOW | q = 0 | S = 0 | Stoichiometry = C25H20B3IrO6 | MND = 9
Ir        2.25109453610169    0.07265536566941    5.54335566980492
C         0.99676625947372   -1.52918533978808    7.11795109360434
C         0.81366840719835   -2.00452398784314    5.82000957492245
C         1.90956870472909   -2.35514804858879    5.02657504500883
C         3.20217535369216   -2.24813251297215    5.52910800545750
C         3.39626116855946   -1.75741525010304    6.82301185434842
C         2.30528365439725   -1.40209051892258    7.60817279286490
C        -0.16626525075018   -1.20962027507776    8.00373690128572
B         1.57555443744941    0.63823072542145    3.73419350569413
O         0.40495050986386    0.02352346923651    3.26458129511117
C         0.19938975775462    0.48803839665799    2.00685971524303
C        -0.80577176762725    0.19278022755161    1.10860795104689
C        -0.74974560475199    0.82074680480103   -0.12846066493277
C         0.27150023212368    1.70420574965370   -0.44726147421479
C         1.28425574668106    2.00188381062447    0.45463365585630
C         1.23227677094228    1.38132414804985    1.68695903262061
O         2.07554372501716    1.46909913696889    2.74493594979182
B         1.42709578058362    1.73432382123489    6.32429111875152
O         0.95080955244556    2.91181414027818    5.76983786832130
C         0.44402486145395    3.65651573601223    6.78162511762478
C        -0.14943923910491    4.90309857352709    6.75814158477656
C        -0.58913341016246    5.41849338645364    7.96999973735101
C        -0.44228989303394    4.71391916685236    9.15610596236388
C         0.15262919906489    3.45961041714893    9.18563806310700
C         0.59226498268675    2.94722766058428    7.98220507734175
O         1.19425571725356    1.76147932921780    7.71101891218918
B         3.95561264220495    1.10056449968311    5.24411617479601
O         4.28405233288712    2.44638275537705    5.23625065500267
C         5.62071581571351    2.52987977448149    5.02742811293454
C         6.43871802677509    3.63834404256257    4.93427869623606
C         7.79174249084241    3.41097105674309    4.72127953600333
C         8.30412814929570    2.12654662347234    4.60837089257373
C         7.48649271807779    1.00839437821903    4.70286971037663
C         6.14102347127478    1.23245856431472    4.91245048437344
O         5.12339820940542    0.34619034950669    5.04882571582199
H        -0.18640395715631   -2.13436463413859    5.43243846826151
H         1.74277228679592   -2.75972229051344    4.03868325959878
H         4.04844613929851   -2.56200654535922    4.93732745320149
H         4.39581296132441   -1.69720650113151    7.22816244169630
H         2.45681762728991   -1.06194195105389    8.62254837820193
H        -0.21432514214635   -1.91633855311928    8.83323423812199
H        -1.10242491751429   -1.25570501253944    7.45259580052239
H        -0.05197528220032   -0.20988750662083    8.41851577101706
H        -1.59861593502529   -0.49394984133477    1.35895768226146
H        -1.51908265108256    0.61515458821402   -0.85749419293871
H         0.27994074489421    2.17145676481625   -1.42048379798624
H         2.07842481361657    2.68785799302440    0.20966619335348
H        -0.26190743200086    5.44781978808419    5.83525166189795
H        -1.05707159399318    6.39120542684145    7.98927953164697
H        -0.79788227442535    5.14855661554300   10.07815663290020
H         0.26865135014320    2.91146077998161   10.10720980239856
H         6.03737724206414    4.63454578473932    5.02193515388320
H         8.46104648261350    4.25432754281914    4.64174562357430
H         9.36241904462535    1.99113676177473    4.44306685368209
H         7.88317244436166    0.00951461296938    4.61469972123366

