50
CSD_code = PEYQIV | q = 0 | S = 0 | Stoichiometry = C22H24AuClNP | MND = 2
C         1.24001982380211    6.84047056508427    3.92858719504016
C         0.37568538444356    7.35980193666396    2.97765199872080
H         0.07394453656476    6.76464999434626    2.12752699047580
C        -0.06815043855412    8.65785683943203    3.17610192584158
H        -0.74121456809743    9.11948300097425    2.46809750003792
C         0.35623298902493    9.35625359510042    4.29441515890581
H         0.00989846616874   10.36333067136945    4.45616221572948
C         1.22586719949421    8.74411623485520    5.19852335803798
C         1.77937638825582    9.41720315108743    6.43722370292815
C         1.62790944381466    8.45739196647158    7.63396474873243
H         2.06235728301397    8.93108990930822    8.51664050040286
H         2.19866302757837    7.55560270550376    7.41460505036356
C         0.18845568075967    8.05520681444735    7.93211571770351
H         0.17025498661768    7.32329005990612    8.73654867749577
H        -0.27270226148801    7.60240663625075    7.05665365476740
H        -0.40960632409609    8.90954138861343    8.23893868381729
C         1.11191306755578   10.75982635955079    6.73450651278065
H         1.34018865143385   11.48809146638124    5.95926446368865
H         1.48842436081814   11.14825737730633    7.67828668545301
H         0.03282983509652   10.65851351741763    6.81396225351548
C         3.27819909691254    9.64854407014041    6.18420164876856
H         3.42305283613976   10.31533094300275    5.33623873551717
H         3.77261826219675    8.70420472950624    5.97007385050777
H         3.74107297786217   10.09769563568256    7.05955916233013
C         1.43859984190162    4.57197964757349    5.52514789820109
C         2.20056765796064    4.90314475089636    6.64049533343109
H         3.11632464733161    5.46245042164420    6.51614869022033
C         1.77793362580145    4.50694199923947    7.89562316156251
H         2.36614703100301    4.76205052811352    8.76504525029387
C         0.60329314757285    3.78608712491470    8.04159288178859
H         0.27769996893557    3.48099598321933    9.02512415921482
C        -0.15251647019125    3.45135310105567    6.92977384452883
H        -1.06533251991696    2.88529773117089    7.04400423743576
C         0.26377094459894    3.84241328122754    5.67024695760258
H        -0.31257711868553    3.58282971380243    4.79048158985801
C         3.67298256968753    5.34961364808810    3.92894877230447
C         4.30900877056354    6.52662767019428    3.55186762736995
H         3.72556375438428    7.38876562197381    3.26184533410506
C         5.69153061621118    6.58948312963957    3.55857106936963
H         6.18691466550444    7.50625143796072    3.27439739713802
C         6.43914864334656    5.48203795719343    3.92295935494111
H         7.51746182503408    5.53733663278659    3.92568857552515
C         5.80655521917101    4.29958219047411    4.27639006338092
H         6.39061711117971    3.43344642324506    4.54983923916201
C         4.42722576787450    4.22882956096980    4.27339154612335
H         3.91955562678488    3.31044776167158    4.54100287396405
N         1.65110575192956    7.50482827546254    4.99479261681416
P         1.87880742837050    5.13954524529569    3.86254153486525
Cl        0.20097462527915    2.74207813103331    0.43628727260734
Au        1.08294616295895    3.92022246269791    2.15574232666183

