69
CSD_code = PEYTEV | q = 0 | S = 0 | Stoichiometry = C31H31ClN3O2Rh | MND = 4
Rh        8.36269618748366   10.20593792479391    9.35787069383216
Cl        9.81409473203854   10.29155951836896   11.09773822954802
O         6.52127042391689   10.00619801071422    7.01487320817962
O        10.84922815360034   10.61202017384964    7.75165203498712
N         6.54211900175100   11.25356195154746   11.54928097332217
N         6.51299038330075    9.12719677670855   11.56864308108941
N         5.85966582516776    9.48048672341777   12.68234486651546
C         6.95498534148622   10.15247757038900   10.83697552491697
C         5.87722467707149   10.79377485781921   12.68951950579697
C         5.34861304194042   11.69503859345140   13.60946719434383
H         4.85483851383827   11.31624194798684   14.48818100682587
C         5.46912351825025   13.05006991155392   13.36088697491184
C         4.94597233521995   14.02951661122406   14.25047507986610
H         4.46181879945839   13.68582543345816   15.15251900148789
C         5.05047385619384   15.35364768371801   13.97175089591515
H         4.65101983403308   16.08977372586561   14.65314312959085
C         5.67832092677893   15.79183366497840   12.77969377222339
H         5.73588222568507   16.85052851920615   12.57696951305637
C         6.19931639969245   14.89665792854475   11.90328113650985
H         6.67441717658892   15.22265482887448   10.99012030262333
C         6.12969189653840   13.49585512699287   12.16152419594232
C         6.67319917652807   12.57559043606307   11.27601877146491
C         7.34651236731855   12.97910569903324   10.02190663673647
C         8.66191447042098   13.46919080762039   10.04121353506552
C         9.25200621886523   13.81601483670260    8.83358175392144
H        10.27432352695171   14.16643194810976    8.83351567641378
C         8.56409619550194   13.73502511141851    7.63009056343076
C         7.23526346121423   13.33498698178545    7.64675315048530
H         6.67321428402502   13.31230755280687    6.72405795892507
C         6.61216898490841   12.95546987071015    8.82621377963845
C         9.41355781924003   13.62386498736711   11.32582050972272
H         8.81171786357157   14.12937801531483   12.07903904143108
H        10.32735758411908   14.18965901556761   11.16491105874399
H         9.68635910930493   12.64202332228768   11.71431474777752
C         9.25057894587381   14.08962806360428    6.34736519849910
H         9.74026778649463   15.05866914901016    6.42771621539040
H         8.54562837769140   14.11817477879901    5.52062467433964
H        10.01684385813772   13.34845945231723    6.12171866297832
C         5.15944878820473   12.57491592752902    8.83918315718467
H         4.74065258002521   12.64069391478385    7.83859255927330
H         4.59873543440343   13.24046980306350    9.49654213282637
H         5.02213367685855   11.55494375398994    9.19849131714250
C         6.60070345369472    7.70913050843351   11.23202402672708
C         8.04879169232704    7.31092303924961   10.93922551311585
H         8.67045481727185    7.51820251174928   11.81260132389174
H         8.43757733843269    7.91008392182142   10.09295705896941
C         5.73253119313632    7.44452487252348    9.99607049893946
H         4.70005339989595    7.73758585712323   10.20348229590955
H         6.09968050073528    8.04534959261770    9.15843072484978
C         6.07598916523908    6.88113444193481   12.40590911525152
H         6.67927144399503    7.08339820305952   13.29193902543438
H         5.04943942476663    7.17274442453285   12.63136493238100
C         8.10465488212512    5.82852829403067   10.58090495940811
H         9.14280009330504    5.55265826789591   10.36954581069591
C         6.13802187617873    5.39709643581652   12.04594819795760
H         5.75973137485538    4.81097889095551   12.89021216499516
C         7.24638241099012    5.57356984430101    9.34293597870894
H         7.29855008965456    4.51945482231734    9.06358638771970
H         7.62228320478863    6.16398017057277    8.50392630479167
C         5.79875695140237    5.96000299799474    9.64160600722334
H         5.18002918354194    5.77692324685270    8.75643193440557
C         5.27440662853852    5.13160473902353   10.81364773083790
H         4.23531754313003    5.39609846084477   11.02207364215434
H         5.30509959990223    4.07014908726420   10.55997322403353
C         7.58282485363412    4.99818222657755   11.75258240543338
H         7.63334881617517    3.93531019177857   11.50754015590691
H         8.20347744381726    5.16880940878779   12.63451176160912
C         7.19921314906105   10.08218119338440    7.94065384299851
C         9.86456570972539   10.40013343720847    8.29063355276185

