51
CSD_code = PEZCEF | q = 0 | S = 0 | Stoichiometry = C21H24ClIrN2O2 | MND = 8
Ir        4.34206098306233   11.78415934604676    3.57261844270034
N         4.90071277941658   12.00223615713314    5.55507650371927
N         5.32849877281578   13.53768559840710    3.54057100485136
O         5.18317749434379   10.94592019761225    7.58611755573008
Cl        6.41408388948749   10.77670288740543    3.15022726426875
C         5.46572988838784   13.20878405919848    5.87595701278995
C         5.84793270256691   13.67224148176841    7.12704204389149
H         5.70056946340341   13.04871378211826    7.99199878546698
C         6.43863239411884   14.92913105566998    7.25333873075902
H         6.72026784297840   15.26658102276028    8.23995087796663
C         6.68088204800307   15.73756764393697    6.16867519055219
H         7.15572201354773   16.69936718239035    6.28635786551414
C         6.33005602728800   15.30244955795326    4.87950118915265
C         5.69860520040317   14.04028016699676    4.74580119653701
C         6.58187765863947   16.02446226051574    3.69428441477575
H         7.05270818735172   16.99435540964927    3.75296556109907
C         6.24453420390678   15.46966909378537    2.48778362026803
H         6.44965541923448   15.98034523794524    1.56016644964322
C         5.61971042461347   14.21880607929771    2.44875986208493
H         5.36556269704457   13.76636605030448    1.50220747145639
C         3.29647352768996   10.98476972050650    1.76514606660059
C         2.72235476188607   12.25121648368069    2.04117093828700
C         2.14971327674038   12.19675505760036    3.35729769739302
C         2.24998071679620   10.84332484562643    3.82801298125883
C         2.99807717251811   10.10648349085027    2.88091650402875
C         3.90589098546193   10.51202602287328    0.48423114465172
H         3.25947772909714    9.76661065110715    0.01927562328760
H         4.87341271800807   10.05021271265906    0.67509450523410
H         4.04798444113210   11.33132047911128   -0.21572041420928
C         2.58718401648241   13.40867894014700    1.10420780193489
H         3.27084536102806   13.32297731861512    0.26324499470002
H         2.77311992163138   14.35551077520729    1.60884333819225
H         1.56943006211028   13.43393866847333    0.71070731229086
C         1.30212884289169   13.25713531657340    3.98308482113473
H         0.25986764048922   13.12821778460856    3.68351564766270
H         1.62258680753238   14.24985163515469    3.67461784497765
H         1.35130194579018   13.19989600112320    5.06807809380275
C         3.26071964599838    8.63591120898033    2.85999143851688
H         3.03784967808572    8.18559418460183    3.82222393355636
H         4.30489523989049    8.44294613909199    2.62226831320771
H         2.64262957059765    8.15952298231957    2.09663913125976
C         1.55099362730998   10.33269565943164    5.04434341377540
H         0.47216777024768   10.42017694677031    4.90341092760990
H         1.82211219214812   10.90905738715180    5.92719893516522
H         1.79446515196862    9.29068459848181    5.22602398335204
C         4.89570723327304   10.95285837232640    6.41105399476914
O         4.49358922388345    9.84390043666416    5.74072330722653
C         4.55088446485918    8.62605352538315    6.45977455667948
H         5.34701642439498    8.66759157704348    7.20534726232809
H         4.75217446198675    7.83909426267956    5.73560018435604
H         3.60078529745919    8.44066254426196    6.96947467373663

