61
CSD_code = PEZCUV | q = 0 | S = 0 | Stoichiometry = C26H28ClIrN2O2S | MND = 8
Ir        7.11898532002197   12.35713479953255    4.59800733566399
N         7.95708338707750   14.17381016848880    4.17847869669869
N         8.93426589373017   12.23431477332817    5.56560145906526
O         9.64085237813337   10.95385226571151    7.62945633248672
O         8.56939139495210    9.80834542782335    5.74714189669352
S         9.48439694700429   10.81824911088525    6.20158608481652
Cl        8.19723901166228   11.63295159324417    2.66094156391962
C         7.45100419156521   15.09326956032115    3.37732318385942
H         6.51992212595796   14.85985726840360    2.88366386233540
C         8.08205263344851   16.32125996844680    3.15140529655794
H         7.61682593109312   17.03258880883437    2.48725964653184
C         9.26846963967823   16.60387979407395    3.77539551679796
H         9.76745629424718   17.55007370783827    3.62817178113766
C         9.85561211398304   15.63300816622820    4.61481688501016
C         9.15070065673091   14.41347411713504    4.77409270814541
C         9.68769370280430   13.35201170186116    5.55979153644656
C        10.89867401676609   13.55465101310162    6.21234223685922
H        11.29885895475922   12.77642147506131    6.83948004700268
C        11.56821517196964   14.76613444809514    6.06857672509685
H        12.50604940214678   14.90024072153265    6.58758437203226
C        11.07939669069847   15.78760456788709    5.28537146806423
H        11.62637218196889   16.71070660307496    5.17369458409334
C        11.08706585732978   10.52843979906446    5.46425838926039
C        12.15428786805800   10.21342445866931    6.28365648659959
H        11.99540193233777   10.17081656209410    7.35025209255047
C        13.39099221432984    9.96201869478304    5.71908012006634
H        14.23102022663679    9.71312819982483    6.35134851182197
C        13.56461887718041   10.02373018623141    4.33901537341396
C        14.91363031631804    9.76611706405137    3.74022852699007
H        14.84103365575788    9.61954883801266    2.66602408716997
H        15.37042493431576    8.88550910745144    4.18728647237681
H        15.57240549624951   10.61416753043923    3.92708037599576
C        12.47360327455110   10.33755441936358    3.53689581961881
H        12.59299328432581   10.38444319176150    2.46469632751378
C        11.23016672823213   10.58790637669949    4.09316933202111
H        10.37949593690618   10.82309224080999    3.47242845871698
C         4.96238406213982   12.93163835143450    4.82223263384426
C         5.51849708232298   12.65592782599298    6.11929146987843
C         5.84378053801162   11.26243666650659    6.17598036938796
C         5.62161093677379   10.70596436997781    4.89266315371587
C         5.06423205381983   11.74144123054310    4.04453306918370
C         4.24833929397026   14.19285434782164    4.45022631471420
H         3.24114889928858   14.17039997793973    4.87013723525049
H         4.16055713161179   14.29947622831193    3.37170478609454
H         4.75693910464530   15.06912201472487    4.84778760430057
C         5.49765828298062   13.57100225989750    7.29959672306270
H         5.57773791650328   14.61242199857075    6.99488806979782
H         6.32190731877516   13.34007372627702    7.97065330698576
H         4.56386524433115   13.44905703334462    7.85246269420073
C         6.23582231230798   10.53814934983286    7.41703233910989
H         6.39342396117750    9.48482919472781    7.20964521228768
H         5.44886138553145   10.64940817287630    8.16529301595247
H         7.16251022963952   10.93226495313986    7.83168788925483
C         5.74548230384873    9.26266018188437    4.53116865927808
H         6.68782623005337    8.87492527673621    4.91182491470075
H         5.72851571526138    9.13303631820015    3.45278287802880
H         4.92367072465307    8.69340155885524    4.96888284873692
C         4.49119479284018   11.49556801550650    2.68339161378278
H         3.64521461462295   10.81163103788572    2.75930887843503
H         5.23731748820121   11.04524642456844    2.03098046481009
H         4.14984373376212   12.41972675426207    2.22464026174834

