128
CSD_code = PEZCAA | q = 1 | S = 0 | Stoichiometry = C50H69IrO6PS(1+) | MND = 6
C         0.28881464521028   11.27464471445186   14.04812866767033
C        -1.10581222610657   11.34788135665665   13.99170867785134
C        -1.73595783432586   10.67836244358089   12.94717992467781
H        -2.80567288965902   10.72845508854251   12.88266995405280
C        -1.05070329989696    9.94687662076934   11.98681675799256
C         0.32917847779676    9.87713545717063   12.09819739821815
H         0.91166927394792    9.32053569281668   11.38146738764421
C         1.00964681014090   10.52625027256610   13.12046824578636
C        -1.92066432664362   12.10120832683598   15.03931844706462
C        -1.66562338460598   11.48587578999201   16.42205685125687
H        -2.01566934277974   10.45639648003317   16.44003500968085
H        -2.20293885910600   12.04581924249680   17.18432413620768
H        -0.61038779939669   11.48737716646228   16.67115435366415
C        -1.53833574108829   13.58695403831869   15.02542996409749
H        -2.19054366084069   14.13903944313266   15.69829527896455
H        -1.65248842745713   13.98562346465498   14.02015977208668
H        -0.50999924100499   13.74725269557000   15.34837121079772
C        -3.43098451561896   12.02655108300686   14.78219612861466
H        -3.69747427135437   12.48846181610310   13.83474509703135
H        -3.95122432565171   12.56367236427356   15.57230306219121
H        -3.78515282391014   10.99934202120525   14.79573533450817
C        -1.74858877663592    9.22133200593501   10.84770985400650
C        -3.27146682627919    9.36890861267782   10.89384630984593
H        -3.56992998961009   10.41101739817184   10.80760125208704
H        -3.67934467798076    8.95139785051509   11.81129668641592
H        -3.70970181532324    8.82796640303179   10.05854235999457
C        -1.40970121947979    7.72613041886377   10.92983873351356
H        -1.71250250854566    7.32292178006312   11.89378047179377
H        -0.34519857043915    7.55113670765089   10.80299883020573
H        -1.93617000416060    7.18265075588448   10.14930746197000
C        -1.24894076177387    9.79559867207121    9.51465593807173
H        -0.17472724066008    9.67470690019842    9.40690200638531
H        -1.48202087623875   10.85624860861885    9.44948459426982
H        -1.73355721008968    9.28545279235838    8.68595636370480
C         2.47808569123822   10.36303004432846   13.16210711475594
C         3.01862988314249    9.09232126403531   13.02171621238842
H         2.34138544077220    8.25332622208583   13.00356240183207
C         4.39020287748369    8.90120097530389   12.93331222507687
C         5.19822644800535   10.03005490336448   12.88664302805650
H         6.25520819528738    9.89876624159393   12.75382306189940
C         4.70626611861614   11.32755208573918   13.00691043161000
C         3.33355001275556   11.45894372125631   13.21693803581226
C         4.94360779528166    7.48716867796062   12.85423442451862
C         4.54182558956323    6.73234747932075   14.12959405373879
H         4.95519636395905    7.22607947981649   15.00690279259166
H         4.92404695387377    5.71510753296190   14.09567211404585
H         3.46218856912009    6.68624575208830   14.24118240816482
C         4.35092445615876    6.78387671463421   11.62503439821966
H         4.77115544137313    5.78575568203409   11.53010680306445
H         4.58442029299340    7.34271615681129   10.72138140712781
H         3.27156112361463    6.68884316838178   11.70128711640057
C         6.46935830877846    7.45114467655599   12.73577707220006
H         6.94336338346316    7.92521127653669   13.59218315180598
H         6.80473722226608    7.93814320017784   11.82327690618318
H         6.80223302450924    6.41644396117266   12.70166110892576
C         5.61080860465352   12.53893648429124   12.79357498307773
C         5.70250478493544   13.41784312521165   14.04731838009706
H         6.31769908909466   14.28964617694119   13.83280993577612
H         6.16433264396113   12.86874789498133   14.86439385979175
H         4.72341286222302   13.76704875477215   14.36543238026639
C         5.03299712047934   13.34674512553711   11.61980041890654
H         5.03300654718610   12.73968752714019   10.71725813155911
H         5.64167240865336   14.22975344368056   11.43826943235692
H         4.01236405688016   13.66142330571748   11.81536763638178
C         7.04354386218716   12.14361481557045   12.41873782341533
H         7.53251147550446   11.60727770119022   13.22834508032876
H         7.61936462365616   13.04574737269993   12.22478241025566
H         7.06412525810451   11.53734234797427   11.51694506999672
C         4.03793581834705   12.52462105392816   16.91149126436681
H         4.42612954908742   13.52305657323430   16.69061934360424
C         5.20125801837346   11.51594485110711   17.06693154323381
H         5.19996703786243   10.82525367888593   16.21940397718782
C         6.85799255906076   12.10196962832865   18.57025624774219
C         8.18643475355812   11.35378470629223   18.67978719809773
H         8.07162579023983   10.34447645704143   18.29408970309456
H         8.48687998595858   11.30376126523454   19.72110460018859
H         8.94393303475495   11.87245385039702   18.10121969725978
C         6.98357804643650   13.53243251649102   19.09662845507988
H         7.27067693742416   13.50248500064658   20.14250673226996
H         6.03476727856467   14.05631651401585   19.00509984727837
H         7.73895120331284   14.05971484488415   18.52293842204414
C         4.91127288313273   10.84156197086040   18.42854937235521
H         4.98363002609099    9.74870825134024   18.44337041018262
C         3.34666482077431   12.47064479167613   18.29236937554464
H         3.83429726076724   13.20197586410365   18.95630626866458
C         1.84616871321897   12.67990249164069   18.28648001535747
H         1.45771768697908   12.46247036245729   19.28185134637484
H         1.37239960247524   12.01326152467429   17.56705912263617
C         2.53254427383753   15.29957655201223   18.83309028566524
C         3.65314354608543   15.85939390540833   18.23780140866776
H         3.80253931917234   15.76632220766773   17.17027605589345
C         4.57063399340447   16.53839774747964   19.02083850220685
H         5.44458666893852   16.97490806054788   18.56256976101253
C         4.36841334726811   16.65261781809854   20.38728001475258
H         5.08770491776361   17.17902015877326   20.99456666532316
C         3.24356413778558   16.09531134224524   20.97330207277016
H         3.08218080782896   16.18741177341359   22.03569840763885
C         2.31765102808813   15.41930876481760   20.19693296108761
H         1.43538636161944   14.98798032277341   20.64370997945074
C         0.21143361325466   16.72239384555854   15.80999349402518
H        -0.39767222874525   16.46072505080006   16.67304845473262
C         1.48811134714946   17.20375664869687   16.04573965923528
H         1.79999574644723   17.30231069083782   17.08142956200897
C         2.22133854841823   18.10614283754416   15.07810545759263
H         1.49293235264057   18.70837113120796   14.53644118956300
H         2.85286328771190   18.79219816866690   15.64270252633686
C         3.10299746460131   17.31630710124951   14.09393614988948
H         3.20419899315575   17.86524390310955   13.15367668907111
H         4.10581581648443   17.21468134961285   14.51161845336453
C         2.57803962793629   15.93159585967858   13.79683008807503
H         3.34494090099879   15.26385300759406   13.40994462192596
C         1.24827641855977   15.63899064297182   13.44376732807823
H         1.09168357858048   14.74040226987202   12.84909349467870
C         0.18834724198714   16.70505072370423   13.26141300770426
H         0.66564619924283   17.61051039091300   12.88704431567231
H        -0.51864480280763   16.37507264258971   12.50088494095957
C        -0.58555085608189   16.99896546389977   14.56051107657890
H        -0.90681205015302   18.04442346763203   14.57529096971185
H        -1.48562805516763   16.38703481053545   14.58792462854339
Ir        1.58848941739953   15.07889173558240   15.50103832585773
O         0.98210522291176   11.86750964718716   15.10663346510731
O         2.75387516706788   12.71660105262209   13.48736445901720
O         3.20811275851353   12.05913018973699   15.88149767228717
O         6.44808095325330   12.11563180220411   17.19907653608299
O         5.84897229022377   11.41355329269440   19.29182173246712
O         3.60737428830314   11.16663571851192   18.78084008748124
P         2.18258706170847   12.92173174065462   14.97493071178304
S         1.33391799821379   14.37816218718426   17.86034751229979

