48
CSD_code = PEZLOX | q = 0 | S = 0 | Stoichiometry = C15H24Cl4N4Pt | MND = 6
Pt        1.71662014820753   10.29735961637422    4.09384491278976
Cl       -0.28974099754541   10.85056535779720    5.30842340224848
Cl        3.70767772103404    9.98997248698188    2.86565611685785
Cl        2.46326116432474    8.85019739060555    5.80019278074051
Cl        0.62649053072949    8.58869461132085    2.88648755281847
C         1.14155198421526   11.60819919861278    2.66958290960464
C         0.91818171545090   11.45388322571487    1.33675228274902
H         0.94761076412690   10.54759592772547    0.77037403844990
N         0.60750176846862   12.67486678807016    0.79667197336084
C         0.27819615300908   12.85648453021135   -0.60806176452793
H         0.07016362326497   13.91872634148775   -0.77173957644392
C        -0.97455949156940   12.04973334808620   -0.94109730095355
H        -0.79753206400837   10.98768677431538   -0.80014420495494
H        -1.25648038216839   12.21988265565054   -1.97630454942313
H        -1.80214329487893   12.34737837758467   -0.30143709620894
C         1.46946566758080   12.44378719062849   -1.46904906787590
H         2.35503921269853   13.01353590858333   -1.19688809850076
H         1.24592980627716   12.62754670990720   -2.51611720010787
H         1.68880892104363   11.38794432751661   -1.34246096783235
C         0.64703001761408   13.58821187244038    1.77031136953607
C         0.36484006227568   15.04183211661587    1.67030317199591
H         0.23183044812879   15.34309752781482    0.63602654233299
H         1.18943215717166   15.62133324157643    2.08476755896320
H        -0.54421097554246   15.29368058968434    2.21745559947593
N         0.97459777939115   12.95360269738348    2.91135987941135
C         1.01976628935924   13.50681606793991    4.24509299637117
H         0.18920211703956   13.03206984542599    4.81147620952882
H         0.92269743902493   14.59261564132951    4.20892958360266
N         2.24137788685234   13.13368823966959    4.91996596437175
C         3.07263561506429   13.93342472227791    5.61388064280285
C         2.92125384712944   15.40568585555240    5.72439350779826
H         2.00427903441403   15.65629181235846    6.25856236369523
H         2.88145235398215   15.86239964194138    4.73565180690504
H         3.75593648228232   15.84442270045250    6.26188919998289
N         4.00323288902477   13.15829832626284    6.17680131534690
C         5.10542010508839   13.54364965646731    7.04359321479265
H         5.09973507606769   14.63473782367643    7.13272855459506
C         4.89568756708825   12.93086894494288    8.42630899394612
H         3.94583179686604   13.25249063011083    8.84714849513706
H         5.69494154549921   13.24351895524938    9.09226364169183
H         4.89544975903365   11.84634615619636    8.36924536773685
C         6.42680032531474   13.10416998562287    6.41817767454515
H         6.48074180408155   12.02202553866168    6.34917167437232
H         7.25462278192074   13.45282863673186    7.02920961222801
H         6.53381073507119   13.51785036741826    5.41805215478298
C         3.75013237946385   11.85690343232617    5.82832380932790
H         4.34336382121697   11.03110776509223    6.15863448680109
C         2.63846590981735   11.82109044158911    5.04538846512930

