67
CSD_code = PEZSUK | q = 1 | S = 0 | Stoichiometry = C29H31AuN2O3P(1+) | MND = 2
Au       10.20514265376831    3.27022343471111    4.30852254846833
P        12.07271553675772    4.50006769598316    4.69229344840019
O        12.44967319346406    5.72006192376896    3.74189381427156
O        13.43269592711421    3.68632461130711    4.68285819144345
O        12.02096163505640    5.31148353628330    6.08559973417016
N         7.95137656434643    1.72911705227041    2.95983381633270
N         6.81100475359963    1.04002704078837    3.21608011773242
C         8.51335034376627    2.17477207940764    4.09354578356131
C         7.68691500693392    1.71036409337450    5.12613310083834
C         7.81899580057111    1.88629056943759    6.60043580712490
H         7.47927385851907    2.88826905958516    6.87925262266780
H         8.86610889962468    1.80795261986944    6.89770897516228
C         6.96742800521301    0.83247596341920    7.31196711392043
H         7.42925356457743   -0.14952338296362    7.19269489250613
H         6.92457674660491    1.05689931185089    8.37748790453573
C         5.55227678655920    0.79897742599350    6.73457834582604
H         5.12803570274714    1.80386628782900    6.77295295911654
H         4.91957615466648    0.14383714204040    7.33283585504617
C         5.56054180639096    0.30756379952360    5.28227469919242
H         5.74156209940463   -0.77196535481914    5.25441800455256
H         4.59042380027261    0.48805309189236    4.81298784748292
C         6.64522123911837    1.00405517426031    4.55064038356154
C         6.06842461932216    0.30315617235559    2.22230648831994
H         5.00649193218321    0.36334462046189    2.47437674702261
H         6.36870352513275   -0.75172054190063    2.26545794391205
C         6.33098979595139    0.85635133959750    0.82686562977058
H         5.90655657704294    0.17675017784393    0.08971758895464
H         5.84805892415362    1.82827600715721    0.70936993892220
C         7.83588278307657    1.00217437281597    0.63020217109285
H         8.06342171060713    1.32279962258934   -0.38502496533686
H         8.32908649191015    0.04385489912149    0.80261377570213
C         8.35617055154822    2.04517290523244    1.61173085037187
H         9.44659371960967    2.10070407226938    1.59565182455714
H         7.95907956837749    3.03245070052067    1.34313895751379
C        11.54560859841785    6.75452457974385    3.50801378458019
C        10.45433664034002    6.55003322525646    2.68028574354653
H        10.29847211360554    5.57564159389910    2.23853362260805
C         9.59247914443278    7.60254157372739    2.42235041103303
H         8.74384380198752    7.45105283450078    1.77312093161892
C         9.82078815292810    8.84433406846435    2.99103834604241
H         9.14813115026031    9.66237366637801    2.78597149835745
C        10.91288988580157    9.03663691206669    3.82062689204797
H        11.09306711000226   10.00324469091900    4.26449370127558
C        11.77949169766583    7.99013106835394    4.08693699499060
H        12.63589233170093    8.11742159826488    4.73077469895363
C        14.64607077859242    4.30976407719032    5.03624796429700
C        15.05551155695732    4.29419188300042    6.35823148708869
H        14.43244989580332    3.83277126051943    7.11032501160638
C        16.27041957781893    4.86789025244580    6.69434046797771
H        16.59632132025107    4.85748119968003    7.72288652015973
C        17.05810018977945    5.45394536314528    5.71803171941428
H        18.00217130581028    5.90271930842535    5.98517390916364
C        16.63437541331422    5.46599826871370    4.39955152881517
H        17.24535373877460    5.92317033195627    3.63676984498660
C        15.42149547764014    4.89573322647390    4.05171035961632
H        15.07252362848850    4.89766292650038    3.03072786301357
C        11.46304693524553    4.78005993097173    7.23381558200820
C        10.91142128223130    5.66471388602884    8.14924962310682
H        10.93146441718827    6.72199319940709    7.93685346351950
C        10.35376237388207    5.17367158454578    9.31593562456134
H         9.92864340164122    5.85970950436224   10.03171173315471
C        10.33923158769894    3.81056185468467    9.56506625733606
H         9.90240529476122    3.43238012400469   10.47589408490128
C        10.89571177029852    2.93530827724181    8.64913727335946
H        10.90051745843265    1.87379477810781    8.84499626879976
C        11.46070253036278    3.41638281979914    7.47892418314965
H        11.91912915988706    2.74315260740500    6.76706968818302

