59
CSD_code = PEZTEV | q = 1 | S = 0 | Stoichiometry = C24H30AuN4(1+) | MND = 2
Au        3.31332681844790    3.51371779196245    5.02738712981948
N         1.51334204214360    5.45104717731977    3.57870215997542
N         1.46147046643258    3.50616379260864    2.62599297063424
N         5.27076137798312    1.70885160093201    6.45357960205919
N         6.16181413761773    1.66018602624210    7.47771734112560
C         1.98127131823138    4.19288548604520    3.66000659129532
C         0.66713108513044    4.32900988293070    1.85609264904390
C        -0.06417687709505    4.11213577690721    0.69693134888814
H        -0.08203190800113    3.15018634683191    0.21081318007867
C        -0.75888301728357    5.18993086037431    0.18608909062798
H        -1.33890431715507    5.06456491129419   -0.71442580406478
C        -0.72715562029310    6.44276670038573    0.80168184208898
H        -1.28359881869848    7.25525126296765    0.36204885249789
C         0.00093761919024    6.66799151740944    1.95240713023387
H         0.03322954319111    7.63993820647692    2.41721948525670
C         0.69982793789314    5.58871902920234    2.47444176889040
C         1.71738304226487    2.12372162918916    2.32789876120912
H         0.77837166902877    1.65044315781081    2.02007014850496
H         2.05520322009786    1.63569682745490    3.24931362129296
C         2.75011445173457    1.92166157452051    1.25220063401093
H         2.88551302602392    0.88638983482099    0.97273438657062
C         3.45229035066302    2.87545379454384    0.67334346692180
H         3.33776501155899    3.91616128026056    0.92791028481484
H         4.17463154255803    2.65587216979164   -0.09208170908843
C         1.83121937051795    6.52238890341556    4.48336331515529
H         2.22673148498382    6.08058446947553    5.40506505298394
H         0.90849746020942    7.05860661152552    4.73290375052870
C         2.83720457853067    7.49646245868953    3.93373178344354
H         3.02505879888131    8.33527779460424    4.58874893742494
C         3.46398346364438    7.38826157363620    2.77904081769313
H         3.29820679600463    6.56642631048300    2.10196107035061
H         4.17352625549572    8.12777583010723    2.45420688912139
C         4.65610459286288    2.90050051716721    6.39776567124381
C         5.17575901453989    0.64219925021937    5.48775415401444
H         5.82629995348388    0.87313923163382    4.63444788351853
H         4.14524009917815    0.61086958521535    5.12785435090207
C         5.59031789722774   -0.68908828159854    6.10256872159417
H         4.86407416394156   -0.99786747484483    6.85697018841020
H         5.61463584199100   -1.44938313053105    5.32353505073089
C         6.96485248882418   -0.52522148914737    6.74145951122014
H         7.67578344256057   -0.16117278823801    5.99728233491643
H         7.33201282617015   -1.47624526697638    7.12386669534650
C         6.85524378622354    0.46598915212647    7.89362105617277
H         6.30654514188686    0.00704769511736    8.72657181679179
H         7.84464157453162    0.75412478724978    8.25831669048155
C         6.09714358933143    2.83598370399884    8.12957175984584
C         6.86262362584417    3.20495630303847    9.34416294509609
H         7.90850459081377    2.90058707921419    9.25624816353288
H         6.44160831101180    2.68352988029284   10.21016362658895
C         6.76173044154578    4.72103907831648    9.54632081811112
H         7.39597930530270    5.22559817617142    8.81505796689241
H         7.12563598012100    4.97775839420907   10.54095679529411
C         5.32075989645365    5.20102306030295    9.37475917284503
H         4.66945071183583    4.63214764464333   10.04136313188721
H         5.24825814675231    6.25262804406824    9.65187015850145
C         4.85419890665457    5.01777333654038    7.92877157767455
H         3.78133089861109    5.20187904003901    7.84441288092460
H         5.36295009578362    5.73741681237240    7.28010528604437
C         5.17375236658232    3.63265706919031    7.47802504203162

