64
CSD_code = PEZTAR | q = 1 | S = 0 | Stoichiometry = C29H31AuN2P(1+) | MND = 2
Au       18.69115623197692    9.70175175847248    2.83900393711487
P        19.39238822497874   10.97177719420072    4.58617638055264
N        16.93059993930478    7.99233473708884    1.03914409513157
N        16.92723293876045    7.26099848211071   -0.10410637160422
C        18.13019915393260    8.55485193491112    1.25113264930502
C        18.91747366219390    8.17670971603303    0.15417225848007
C        20.33636249163320    8.50952431475976   -0.15943010542882
H        20.94274751416843    8.46664092946856    0.74752160380879
H        20.39244101632637    9.53278449952968   -0.54264691899224
C        20.86245571561989    7.53140945813232   -1.21229732871798
H        21.83557588116834    7.86757086499945   -1.56970510807027
H        20.99243088269369    6.54610009118694   -0.76022366913602
C        19.89042830758703    7.42453133082034   -2.38723499651598
H        20.33560235830380    6.83605749882724   -3.18914592236282
H        19.68887912085990    8.42449998706460   -2.77585146727070
C        18.57145730052533    6.77440004487332   -1.95282717940130
H        17.80927667026488    6.90353253409476   -2.72498031383561
H        18.71670159197346    5.69852950625785   -1.80917795346212
C        18.13979575711240    7.38607631998546   -0.67307356979603
C        15.75314305802697    6.64530453873423   -0.67423709029305
H        16.05401698951414    5.70481754879828   -1.14291718560245
H        15.35083559358904    7.30417470919890   -1.45497639509375
C        14.69180560453948    6.40821555500562    0.39347869500098
H        14.99687718133279    5.59460284812989    1.05427489713481
H        13.75985102104200    6.11957431833551   -0.08986926655906
C        14.51239355394877    7.68797038856237    1.20266148840700
H        14.26531061343277    8.51783827766924    0.53786179342499
H        13.70406941441815    7.57881892729492    1.92388049397445
C        15.80973464402436    7.97861365714063    1.94703536353460
H        15.77457484221265    8.94757339921360    2.44984845414377
H        15.97676562484112    7.20587946366994    2.70840537110485
C        18.48623005906045   10.72745497059542    6.13742542463148
C        17.75002095145158    9.55877155844745    6.30147339741183
H        17.72502386882790    8.83026726234835    5.49963163239587
C        17.06334885871465    9.33476521157985    7.48110310237705
H        16.49404538240455    8.42651193076917    7.60990557689359
C        17.10634252344233   10.27794761950263    8.49505534924541
H        16.56864387315579   10.10433058141949    9.41445767102599
C        17.83610497008982   11.44570990779125    8.33167855724625
H        17.86686200162989   12.17875579993820    9.12339388465163
C        18.52613701762706   11.67580956845875    7.15623502159897
H        19.09458636374328   12.58600387022255    7.02368252743658
C        19.28065881831057   12.76266407928807    4.32066140630157
C        18.14025957159420   13.23127085096672    3.67370687767990
H        17.39427316313787   12.52225478669200    3.33485830567813
C        17.96813024425335   14.58697930414277    3.46963485685697
H        17.08237988119560   14.94990513998208    2.97056220419295
C        18.93698131271994   15.47837276648345    3.90387497938775
H        18.80484248863200   16.53716889216627    3.74270749308192
C        20.07594735362894   15.01366546390087    4.54151024046807
H        20.82988293003459   15.70975404953795    4.87700568356677
C        20.25313037580950   13.65789398166059    4.75375622536402
H        21.14373979764837   13.29567594651245    5.24885766748100
C        21.13005960574312   10.69476475313736    5.01511923351489
C        22.06244903005502   10.93346334063049    4.00586487663487
H        21.72146600459374   11.30043898011260    3.04488747061592
C        23.40517802708047   10.71476232966972    4.24177761756509
H        24.12887038775532   10.91090787587424    3.46500940518350
C        23.82069133841585   10.24103516950245    5.47781495943207
H        24.86997350960901   10.06902478915751    5.66213048898237
C        22.89330373914741    9.98407777796948    6.47372140912560
H        23.21902903380120    9.60876292097177    7.43205584953768
C        21.54532483465939   10.20598792048621    6.24767406074659
H        20.82109978170268   10.00337576551496    7.02436990472576

