69
CSD_code = PEZTIZ | q = 1 | S = 0 | Stoichiometry = C26H38AuN4(1+) | MND = 2
Au        7.08356801910929    3.21816204445162    7.63510765061424
N         5.72129450233871    4.50521642855669    5.23788071467313
N         5.95726951486917    2.36523427624367    4.97307323361917
N         8.16969261042707    3.88034430559262   10.38165272622749
N         8.85474368668065    3.36028482505930   11.43367253768962
C         6.18890719683244    3.38522005451475    5.81981660468872
C         5.18166853400242    4.21037178938566    4.00418826693266
C         4.59887081912024    4.99799822006567    3.02087550788090
H         4.48602491653602    6.06350156209200    3.14001237201421
C         4.17276518488693    4.35780305513979    1.87482798056986
H         3.71407178790006    4.93470416962069    1.08745295535751
C         4.32339794568998    2.98052491634448    1.70540062478962
H         3.97723780236556    2.52512940297258    0.79109810119248
C         4.90649020001089    2.19049011667561    2.67518846364125
H         5.02644749450368    1.12867489868413    2.53285805048963
C         5.33409032117728    2.82505541490043    3.83343183514131
C         5.73861654236893    5.82297223341084    5.81441262849638
H         6.07497547360439    6.53009071996607    5.05064065717310
H         6.46241310219552    5.82095821680561    6.63406293424397
C         4.35795736547955    6.24969351831827    6.34112968497325
H         3.63133018640004    6.14127709937741    5.52930979656537
C         3.91983416518087    5.36396596205345    7.50307366528033
H         3.89023158445598    4.31709113293218    7.20918524685116
H         2.92640449414288    5.64929752357693    7.83790684730068
H         4.60633823710699    5.46576874851665    8.34147874091292
C         4.40804326450647    7.71393735483116    6.76619004821963
H         3.43659024849755    8.03155815495803    7.13431318075788
H         4.68028310532240    8.35277105326616    5.92972490601471
H         5.13867395053347    7.85654738391152    7.55960332971046
C         6.27571859361756    0.98326264724238    5.21659074767044
H         7.00953985212854    0.94576853826361    6.02626994551228
H         6.72944107747422    0.56860282124851    4.31181173876468
C         5.04053337014688    0.15227306281436    5.60264002770178
H         4.29761757599230    0.24301441511188    4.80315927996736
C         4.42048045589067    0.66327987318306    6.89926118557728
H         5.13580777874874    0.60121729044638    7.71712823711865
H         3.55045176382246    0.06608334490778    7.15814737763387
H         4.10096413859931    1.69851833168208    6.80006807928973
C         5.44479802218474   -1.31245668660810    5.73846177291374
H         6.18478606243570   -1.43197027032921    6.52692060421630
H         5.86842659815713   -1.68717832075481    4.80985726689475
H         4.57907982420276   -1.91981382611855    5.98706921654408
C         7.97876371529226    2.96293293929331    9.42181893681333
C         7.86597462565603    5.28753166657534   10.30447443473669
H         6.94127286656031    5.39525010701530    9.73337315152927
H         8.66780298072687    5.79789680302615    9.75533412236191
C         7.73543066498879    5.89254553705256   11.69691040073123
H         7.61093766563562    6.97064242385423   11.60831281769376
H         6.85572094093481    5.48856239750956   12.20176778307163
C         8.99177208449462    5.55733933917228   12.49318656984448
H         9.87342545395297    5.91276199160754   11.95636642075075
H         8.97335814010478    6.03872233976043   13.46964552087664
C         9.06518338751389    4.04720891280649   12.68433881503034
H        10.04018571566862    3.74934421286302   13.07891380913578
H         8.29675745377246    3.72648907118645   13.40006274387159
C         9.07958787591787    2.05965732979621   11.16907631440645
C         9.75311318842287    1.08922868893749   12.06460026696329
H         9.07930052915295    0.82668298712750   12.88693837660625
H        10.65372339145744    1.52306350390211   12.50613172371953
C        10.10488254314452   -0.16424758513034   11.25529429256120
H        10.95845515886439    0.05073335689367   10.60968179497339
H        10.39200989272355   -0.96508372862464   11.93634424208902
C         8.92433641698848   -0.60821835493105   10.39183311977490
H         9.14805356198958   -1.56987941943854    9.93000113251879
H         8.04285279506808   -0.73555152615149   11.02364938550491
C         8.62664744137917    0.42700692982109    9.30497411287482
H         9.42007440851342    0.41250119501528    8.55151264242014
H         7.68845904234529    0.19344630974851    8.79728181304170
C         8.55184068882204    1.78268676812965    9.92172048416298

