59
CSD_code = PEZTIA | q = 0 | S = 0 | Stoichiometry = C28H24N2NiP2S2 | MND = 4
Ni       -0.84131236527499    3.58445402765273    3.92505611960324
N        -1.88312729026714    0.58617183988462    6.33761126496457
N        -2.79938353548745    0.41013992892514    8.59419786225049
P        -0.02957450623149    3.72598942057141    1.89980342851496
P        -0.59305773634268    5.73807126605644    4.09857463998341
S        -0.94798408684154    1.38904836903494    4.00561889365643
S        -1.87815933222343    3.27788152046182    5.84234042488086
C         0.70619259146251    5.41035656133263    1.66766264528698
H         1.71344408844570    5.38811482097854    2.09384284959964
H         0.77342789791278    5.65477867733806    0.60357998276785
C        -0.16918302006096    6.40847029425972    2.41888849261651
H        -1.12544301035157    6.52698402839298    1.89682601197604
H         0.29537390918845    7.39444584757275    2.50026890355210
C         0.95826033118215    2.60555496246489    0.87571303500119
C         2.21986886762745    2.90930179704641    0.37844424407862
H         2.67051250305361    3.87142200371548    0.57318609391236
C         2.90454881420387    1.97040620253308   -0.37390722196906
H         3.88263244669880    2.20903295186690   -0.76546324462661
C         2.34404751002812    0.72848834427647   -0.62097142889788
H         2.88615102498105    0.00007142078976   -1.20521167741537
C         1.09345403122778    0.41620963149559   -0.11003511917247
H         0.66090015501475   -0.55596112111804   -0.29214995593683
C         0.40364981783693    1.34838940200707    0.63953555793916
H        -0.56676420979945    1.11441591578518    1.05736439816824
C        -1.56730853731616    3.87490775906551    0.93355988863768
C        -2.76697012221404    3.82704145471878    1.63724987889477
H        -2.73561008641576    3.65986723981857    2.72486112664252
C        -3.97132762621296    3.96349656056607    0.97339080682560
H        -4.90152379284231    3.92495277833275    1.51989663965057
C        -3.97741112663487    4.14167051985777   -0.40112650471864
H        -4.91531034524969    4.24530276770942   -0.92586502584396
C        -2.78509419984221    4.17732909001283   -1.10799832999829
H        -2.79831455034880    4.30642115581495   -2.18022855768446
C        -1.57802380371966    4.04401129932362   -0.44602493799650
H        -0.64633936240709    4.05931130173716   -0.99469844210260
C        -1.89811344281372    6.88661998496685    4.62896348924104
C        -3.20669706767241    6.42524927698910    4.70177964770038
H        -3.41253527625910    5.38579270929354    4.48011855022073
C        -4.22301513868823    7.28372576118446    5.08055417146243
H        -5.23850825913539    6.92293853411068    5.14473925080525
C        -3.93325630837100    8.60296739890612    5.38633430336995
H        -4.72446312509657    9.27353852949479    5.68684283433311
C        -2.62744937530871    9.06432843582695    5.31804046935076
H        -2.40423305196267   10.09195894889070    5.56458786353122
C        -1.60772646668905    8.21053023504428    4.94198803331739
H        -0.58616234582118    8.56258937510894    4.90167808739788
C         0.77989776605309    6.21274397397710    5.19080168281524
C         0.58128426610730    5.93909221960040    6.54406290824973
H        -0.34789640660481    5.47984193145287    6.85718470468455
C         1.56105532399004    6.24465064369048    7.46776479664235
H         1.40088418754123    6.03084603391023    8.51372537663014
C         2.75151922647737    6.81819675960682    7.04786889816622
H         3.52118674387513    7.05505849170323    7.76709908139592
C         2.95734734118754    7.08125812203088    5.70434171701244
H         3.88697879736521    7.52361673097813    5.37649766344632
C         1.97857512622751    6.77763378233795    4.77306343891979
H         2.15860435828316    6.98879495594095    3.72899992678482
C        -1.63430973098127    1.56892264321786    5.57412321088493
C        -2.37720848447829    0.57185448145138    7.53374715056477

