54
CSD_code = PEZTAQ | q = 0 | S = 0 | Stoichiometry = C27H18N4NiO4 | MND = 6
Ni        2.23417572273153    1.81426621569054    3.18992412156202
O         3.90188679443520    2.58682234084514    3.48939160068124
O         5.79050347493826    3.58254204666784    3.01946039562322
O         3.17823031441744    3.00126661560480   -0.48519300571137
O         2.28696014113021    2.27560523878207    1.37607484526120
N         3.16079114411856   -0.15387295159372    2.53613702387031
N         0.64529740594427    0.80879825888714    2.74353882183862
N         2.21647808828304    1.47413050125468    5.09810777814309
N         1.20545749392006    3.69856134502682    3.95418461380378
C         0.88758871627620   -0.15906136021873    1.83631325501640
C         2.23856514411458   -0.61941488166624    1.67212055216985
C         4.41979689890723   -0.47574814309646    2.33660141196660
H         5.13175691132178   -0.07298512777566    3.04531751219502
C         4.84530170268367   -1.28454786181297    1.27486758488075
H         5.89663649835934   -1.48705144294974    1.14396266623463
C         3.90742052307521   -1.82535494052063    0.43074594662801
H         4.19176696444657   -2.48200684815116   -0.37894987106978
C         2.55120164638287   -1.50494636213479    0.62111443072753
C         1.50323073141745   -2.01280909893208   -0.19807904229233
H         1.76283278605517   -2.69486433691154   -0.99460310746803
C         0.21605198495187   -1.64309616057165    0.00652006652876
H        -0.57731737307811   -2.03184969629749   -0.61499937946800
C        -0.12691032326495   -0.69411385962872    1.01231730582349
C        -1.43448717703236   -0.21715057384073    1.19659365112394
H        -2.23484239442997   -0.59710912037441    0.57831481727676
C        -1.66546312898025    0.74084782442574    2.15324195713124
H        -2.65617433333515    1.13319286170110    2.32185124723017
C        -0.59111847049793    1.23406009422627    2.89861884413746
H        -0.75012284065935    2.00692220810338    3.63919568648609
C         2.18792553713037    2.60762624142786    5.82674585458207
C         1.70312317589496    3.80714632586246    5.20160696240484
C         0.82775163818694    4.79726737365387    3.33671179756207
H         0.42639064352679    4.66878121269646    2.33928158727218
C         0.92438504958946    6.07233192370927    3.90847569534430
H         0.62454508166165    6.93920819024661    3.34047391937538
C         1.37902072459917    6.19129439461391    5.19860758431841
H         1.43901686949323    7.15344417111437    5.68655352817264
C         1.77748588025912    5.03417267920359    5.89239626844038
C         2.25939609554519    5.05307810510418    7.23184097646006
H         2.30648730196186    6.00313232785592    7.74381536438214
C         2.66198698461743    3.91348636606423    7.84417133131232
H         3.03028940466372    3.93170581381428    8.85939486566623
C         2.65346184378282    2.66506256282154    7.15810927807318
C         3.13532737726762    1.47636526564394    7.73049676775198
H         3.51138621151692    1.48455303637817    8.74317573176003
C         3.13216259955953    0.32732206301138    6.97881823892133
H         3.49865894308403   -0.60352058832329    7.38238409911021
C         2.66654083162993    0.37287063333441    5.66152694713288
H         2.67049064427640   -0.51870491147515    5.04856849159301
C         4.62392767633886    3.34989152700388    2.75278666108090
C         3.95445360554214    4.01134799230702    1.54308091164171
H         4.70751243686402    4.47229165794763    0.90436422037692
H         3.28177662565270    4.78565900155554    1.92611160125314
C         3.10280177072836    3.02655384967179    0.73130958568186

