100
CSD_code = PEZVEV | q = 1 | S = 0 | Stoichiometry = C28H65O2P4Ru(1+) | MND = 7
Ru        5.02839732528138    3.03861070209364    0.41245169411165
P         4.28516683639778    4.72911307176099    1.92592095883209
P         3.97750982048920    1.54390168854945    1.98373704943378
P         6.72288463944443    4.29496666479210   -0.78746165125583
P         4.85389842769452    1.75669446439253   -1.65296476590841
O         6.78062705538944    2.11606292220671    0.62872435703058
O         6.50248989162580    2.82241955685766    1.72621012982057
C         2.88150036671708    3.98262405904556    2.85223235714443
C         3.26420185159326    2.59341053719596    3.33894487565043
C         7.13412513089641    3.23619929362175   -2.24310585003366
C         5.86665777550850    2.69086449679135   -2.88639604660129
C         5.54612407488537    5.14433280186258    3.23959234815927
C         6.49262381014475    6.20765593454364    2.68473950391009
C         5.02259135104206    5.51510862650918    4.62423018075262
C         3.53771580667359    6.33174975270425    1.31483483321870
C         2.27233098880745    6.05991130518211    0.49942453674389
C         3.19918823835763    7.35052354678482    2.40133201735347
C         5.11109100329928    0.48283917451670    3.03518856173708
C         4.52975480420767   -0.10319874250370    4.32163059916752
C         5.80414877406425   -0.61043433635366    2.23075770634095
C         2.51556609122983    0.54999743683453    1.37524663223954
C         1.40313891976307    1.50708924137320    0.94946621493842
C         1.97018063127741   -0.50745240371901    2.32693977467014
C         8.37342474608469    4.50689997034519    0.11083977665997
C         9.42713379813547    3.47891020515985   -0.30378252519500
C         9.00993060586401    5.89671988161215    0.08457138537716
C         6.35130037260281    5.95578118692788   -1.58966309227542
C         4.90223400916418    6.03623392808928   -2.06489497432654
C         7.28748497785282    6.34986027984719   -2.72872992833115
C         3.18407445832143    1.64603001786043   -2.50418510931164
C         2.60287039842568    3.02517919446945   -2.81021897520380
C         3.17880044125696    0.82513099591821   -3.79404200443450
C         5.52026077252133    0.02789233146502   -1.92961089106197
C         4.67580487234219   -1.02553534181759   -1.22331893595342
C         6.99352484832992   -0.11522009192007   -1.55033697353267
H         3.72982756014787    3.51690267141603   -0.18417100008083
H         3.91124641618099    0.59796546915049    4.87354623708028
H         0.88515276760987    1.90959261475395    1.81678740755762
H         9.07121383330410    2.46326815573498   -0.14905207912947
H        10.30677612139692    3.61685202100615    0.32288655077316
H         4.58198250251500    7.07443901432448   -2.12429572719972
H         1.53428653077206    2.93910137957711   -2.99438216599673
H         3.62782958680391   -0.96264095712865   -1.50947178183170
H         2.60397029038672    4.62890599395959    3.68936121249176
H         4.04114691648169    2.67984247935022    4.10442819177551
H         6.11508353801998    2.03003580562044   -3.72273971674814
H         2.03982477301518    3.92815220323955    2.15869777349426
H         2.39941622179383    2.08541621304899    3.77402679443538
H         7.72266658152399    3.81211412408151   -2.96026991451681
H         7.74174359518431    2.41147768517001   -1.87358136800995
H         5.25062126815373    3.51161330766220   -3.25864492653154
H         6.11364641830051    4.20931862998941    3.33490482162187
H         7.44807093118648    6.17513825362807    3.20360490264398
H         6.66698880012946    6.02157278543572    1.62487654821409
H         6.08458227554795    7.20856102525707    2.79777408681541
H         5.87786642261054    5.73313062732982    5.26198884604610
H         4.38924772591557    6.39582157277397    4.60909202278867
H         4.47316212415472    4.69812506901582    5.08495896597967
H         4.30259938533497    6.76128405022896    0.65690613855619
H         2.07057965963169    6.89840601004068   -0.16298663862212
H         2.36398307187521    5.16197649014602   -0.10803732290543
H         1.41431033638303    5.94087809217510    1.15658963870021
H         4.08010306996197    7.73027930318403    2.90739338444052
H         2.70130112557632    8.19864634722928    1.93377586668813
H         2.51562041244294    6.93362283659850    3.13664132493548
H         5.87646870149164    1.22148255611493    3.31712920420817
H         3.94901447530960   -0.99881866383848    4.12718187898905
H         5.35938737456292   -0.38814625421215    4.96714565001383
H         5.10236779114083   -1.38691089131561    1.93027987207782
H         6.28267780623786   -0.18675132610083    1.35075680528503
H         6.57665838233251   -1.07742488346047    2.83942639320273
H         2.88828555364300    0.04898088479143    0.47538152187447
H         1.80686546123399    2.32919971884464    0.35807446244965
H         0.66947414966637    0.97765133590464    0.34443081214381
H         1.73228973383989   -0.09007737552952    3.30210184407529
H         1.05267757025712   -0.91948965295282    1.90946582532829
H         2.66991860619087   -1.32803884719822    2.45359188828266
H         8.10477678219718    4.28491370679883    1.15204102804824
H         9.73307704647852    3.60712510530307   -1.34002354321183
H         9.74081756108734    5.95257014033979    0.88985615969557
H         9.54410183272946    6.06901499214628   -0.84591254825726
H         8.30096292571812    6.70604758261746    0.23267219270245
H         6.46785597857030    6.67583999214030   -0.77055849751342
H         4.79097570594222    5.60579611442550   -3.05675956288899
H         4.24500830753850    5.50515285751978   -1.38094977786879
H         8.32968612501734    6.15219283873883   -2.50025395856509
H         7.02783581088160    5.82192672530708   -3.64375169389556
H         7.18352028138890    7.41523627914414   -2.92577255341258
H         2.53303864264408    1.15966870925096   -1.76751209312406
H         2.74834128328573    3.71394063401698   -1.98225378069183
H         3.05849637395252    3.45012419345428   -3.70097155765485
H         2.19753780207384    0.91633969400143   -4.25651391450224
H         3.91171617934965    1.20163642825021   -4.50370766256866
H         3.35875490151825   -0.23174078523388   -3.62497594448317
H         5.43275193762254   -0.11993342530969   -3.01251254977845
H         5.03492643198891   -2.01949339434158   -1.48518510243173
H         4.75665235710972   -0.90975797610437   -0.14759388877934
H         7.24742432262217   -1.17034129098130   -1.46676439186352
H         7.64135329316779    0.31636206099069   -2.30970858780772
H         7.20469433317466    0.35995058946941   -0.59576577241552

