81
CSD_code = PEZWEX | q = 1 | S = 0 | Stoichiometry = C29H45ClN5Pd(1+) | MND = 4
Pd        1.81764298764127    4.73272235010132   -5.20925227201516
Cl        1.92891404383752    4.43284974006267   -7.41853308774149
N         1.71866875605533    4.99355777680444   -3.26777995027988
N         1.65958541091435    6.75768952484772   -5.30370353140757
N         2.95808582294033    2.45143817612519   -3.89196343176099
N         1.95933385314348    2.75737192204330   -4.75002298900925
N         0.58939409195082    7.26788294276074   -4.65428599335786
C         0.74887839316433    5.75854806196481   -2.76906932033922
C         2.61996371636437    4.39564794011345   -2.49027333896556
C         0.65073955108075    5.96486654149920   -1.40200825117219
H        -0.12829988968913    6.58680510753872   -0.99243038643314
C         2.96682759994600    1.12036168701499   -3.62414523369991
C        -0.17311620700674    6.37331460074493   -3.80726209324572
H        -0.60294911746622    5.56823945516441   -4.43455531963709
H        -0.97961625462155    6.92100914852458   -3.32680578029913
C         1.91572266938099    0.58478281285070   -4.34062220013330
H         1.62524836550815   -0.44189883115941   -4.37658083036329
C         1.70479427607436    8.96278964264366   -5.46361441724747
H         2.01684103003397    9.94740655052993   -5.73353551184924
C         0.58036290132404    8.62294985377804   -4.73891706973014
C         2.57047150697917    4.54805203323739   -1.11351476764049
H         3.29328362271935    4.06261350876158   -0.47838545737754
C         3.67804882223730   -1.11622278230978   -2.85181382365023
H         4.42268565804927   -1.66222876588594   -2.27892619659784
H         3.72349438720185   -1.46482767503185   -3.87970188096770
H         2.69905575443526   -1.34627862080693   -2.44000576097972
C         2.37294899788812    7.77156883605320   -5.77926375971410
C         1.57341440253541    5.34651132026242   -0.56793462431393
H         1.51587544296506    5.48583911023104    0.49965653891807
C         3.96915595710893    0.38800888796837   -2.76956297612555
C         3.85881267566485    0.80587455427701   -1.29399605041283
H         4.37709141116104    0.07750334636686   -0.67615078308330
H         2.81671261937561    0.83302043507387   -0.98213337877456
H         4.30843132945422    1.77488025787893   -1.09560027917671
C         5.38864588221534    0.62281072037578   -3.30599886508180
H         6.09571850569398    0.03537757501784   -2.72625236376498
H         5.69480774510921    1.66391336690442   -3.25297923868052
H         5.45200700185686    0.30392786494394   -4.34358247459167
C        -0.48390099997895    9.54449029340368   -4.20091391064167
C        -0.53205780727132    9.50944487394527   -2.66435751993183
H        -1.03524600825934    8.62702951562593   -2.27888238826777
H        -1.08032203180513   10.37563480776816   -2.30377948193156
H         0.47309185965396    9.54928888865574   -2.24953748391466
C         0.01696921908597    1.57462583847756   -5.81915046027149
C         4.47592048595777    6.43466476579320   -5.86898096929093
H         5.48939178628806    6.42626569704756   -6.26276287622689
H         4.00020973149882    5.48808058717755   -6.16441428451920
H         4.53357212407400    6.52048932389261   -4.77912179203507
C        -0.14954091878371   10.98061459683643   -4.62505419236487
H        -0.93320633725121   11.65187013107078   -4.28431897059126
H        -0.08559647288345   11.06132120020760   -5.70649007935457
H         0.78981910613680   11.30693618336469   -4.18675587427284
C         3.71553092534383    7.63831622415045   -6.44997172315854
C         3.63792832923948    3.54807126264986   -3.23256052356265
H         4.13939508281829    4.17008369375059   -3.99931970284787
H         4.38390826790202    3.15722650851512   -2.54551339589691
C        -1.84800007591455    9.18019660156871   -4.80450671873732
H        -2.17862301723593    8.18193420416936   -4.53118401844596
H        -1.80204159916176    9.23595901484683   -5.88939778318768
H        -2.59666614079708    9.88828509354940   -4.45920820853554
C        -0.83891654485922    0.40954245436001   -5.30461517821022
H        -0.36360738799077   -0.54541517883451   -5.50713746287923
H        -1.79999385215969    0.41430441750651   -5.81170276887504
H        -1.01454733057440    0.49399638309258   -4.23405804587180
C        -0.78112943167154    2.87824782925663   -5.65137837735914
H        -1.75443229033103    2.76657114897512   -6.12302072307206
H        -0.27100678745666    3.71857913313788   -6.14431635431052
H        -0.93861497040786    3.08521279642147   -4.58787495192036
C         3.52192658113999    7.47146761883104   -7.96177565314318
H         4.48921068288762    7.39797316435448   -8.45094879176761
H         2.99059693469318    8.32639512925491   -8.37231978364437
H         2.95220305120649    6.57296770270902   -8.17982040063490
C         4.53628483040033    8.90735366562948   -6.18463672953051
H         5.54038891903037    8.77861890802694   -6.57969138475557
H         4.60995252234860    9.11186696749528   -5.11842154769757
H         4.09590912939957    9.76911235401820   -6.67694164234771
C         1.28882711870930    1.64233153316027   -5.01427360232816
C         0.35313395072101    1.33801898779707   -7.29624390783143
H         0.90907516367315    0.41138217293953   -7.41460405496050
H         0.95261317084293    2.15364467173554   -7.68972125305451
H        -0.56319269146473    1.26801985638490   -7.87570787711807

