82
CSD_code = PEZWUN | q = 0 | S = 0 | Stoichiometry = C29H45Cl2N5Pd | MND = 4
Pd       15.30656511912050    2.19393742745214    5.95516363094072
Cl       15.10150480903804    0.79632577900923    4.21168492543421
Cl       17.46997576818691    1.65263439285018    6.09465446459097
N        15.31828215660535    3.34062656745769    7.64878478699743
N        14.52026401574317    2.86616288120326    8.61729287506504
N        13.27658590088544    2.40986925028804    6.08459910548276
N        12.21126567008733    3.86065417104160    2.90928760446373
N        11.62553316681822    5.03944727354012    3.14806601799277
C        18.10807292828527    4.86307319615877    7.34297685638467
H        18.40737646830236    4.91551181680093    8.38755313240511
H        18.79265130696942    5.46870646611564    6.75489631465954
H        18.17896794958539    3.82977131308937    7.01065773729574
C        16.26220790924359    5.28622971681336    5.69181650397219
H        16.34685885832147    4.25010616232450    5.31593669674911
H        16.92185677684297    5.90940759702249    5.09285570325953
H        15.24028905892606    5.64622601007185    5.56402960100313
C        16.59278617172433    6.84002111074951    7.61769025470679
H        15.56664990445321    7.20058813177094    7.58750664507139
H        17.19313311538119    7.45753504935836    6.95443057183115
H        16.97763046346559    6.95987792751455    8.62694431486620
C        16.67307475845061    5.37641250206931    7.16927142086699
C        15.75958320032524    4.53226073568789    8.01733223758547
C        15.23451123455538    4.81987931106186    9.28531507977492
H        15.41740370906151    5.70250620243096    9.85837508378592
C        14.43888439953196    3.74903304935882    9.64555186264946
C        13.67125419081865    3.55981222066792   10.92821096278943
C        14.20667328430371    2.33996981328607   11.69162025191754
H        14.07512885829044    1.41232621362508   11.14196018258712
H        13.68601915462393    2.24553207089780   12.64170136365882
H        15.26819571130968    2.46380367563866   11.89280525494942
C        13.87392322677401    4.79587553041315   11.81418106124435
H        14.92631903264731    4.94109645720490   12.04178005877299
H        13.34027775104017    4.66426036858204   12.75236345332502
H        13.49002888030935    5.68789797009579   11.32611064806068
C        12.16575735454204    3.42077967745209   10.65678574861778
H        11.82851537674881    4.20427728988072    9.98137427524581
H        11.61754249376888    3.51644791469449   11.59103360876041
H        11.91070588886404    2.45996723362036   10.22203744968249
C        13.79306069266077    1.64758521039834    8.32412030286858
H        13.30119721026981    1.27266913832392    9.21861781292757
H        14.52406790111770    0.88869655057953    7.96635274369240
C        12.77887829204532    1.92548525614871    7.22668559489518
C        11.41843376429209    1.73676355964266    7.39839948874271
H        11.03127425759868    1.32229617637508    8.31560970369414
C        10.56255336050742    2.07724799677819    6.35948496174984
H         9.49885953115337    1.92871701841917    6.46114865139063
C        11.08900904812748    2.62474504866007    5.20387872126743
H        10.44766791530714    2.93284662570937    4.39519974580826
C        12.46592817347933    2.78150906630521    5.09558710479587
C        13.13598360740461    3.39696536911397    3.89716696805546
H        13.71639558651579    4.26443757951691    4.24740393361958
H        13.84070137448772    2.66762946521918    3.47826487184126
C        13.66497483469851    1.98968265340280    0.83084874680276
H        13.90244111280967    2.91876181358188    0.31666328579660
H        13.88760291683630    1.16178187092270    0.16206725334188
H        14.31496791119552    1.88708402568671    1.69455287229550
C        11.91987275642513    0.81334152099614    2.21492109011007
H        12.60343521859011    0.84568182575192    3.05765910214787
H        12.06585477601849   -0.14202127711280    1.71663535916753
H        10.89616147108031    0.85201569116526    2.58413893073330
C        11.36161449341487    1.66793891539343   -0.05270058559966
H        10.29741608485108    1.63628004794757    0.16959476574920
H        11.65057458262536    0.70545790610917   -0.46850621105053
H        11.54236803046622    2.43150662884005   -0.80520345122241
C        12.17785147716959    1.95056938686886    1.21602866757287
C        11.73772791390585    3.27648571433983    1.77817491881159
C        10.80310083886504    4.16110886265490    1.27190102435155
H        10.22509190114823    4.05085041573415    0.37962513032582
C        10.76909160681308    5.24589418010442    2.16241410905189
C         9.91639526538262    6.48278568625319    2.13022901363569
C        10.81862244353409    7.70958363195272    2.29967653078063
H        11.39132087306710    7.61970085265168    3.21838928431484
H        10.22147414439699    8.61825046213606    2.33815260025780
H        11.51386369188704    7.78485407376921    1.46651825434780
C         8.92638911123773    6.41279322993922    3.30085880660573
H         8.27775827707289    5.54447039188056    3.19905548197216
H         8.30614325451402    7.30622324730314    3.32702788557129
H         9.46956769590753    6.33198866113812    4.23911578820193
C         9.14777506488311    6.58504347930679    0.81271536303980
H         9.83374441290798    6.59800853406242   -0.03125053464523
H         8.56414005588552    7.50314858949514    0.79508417118852
H         8.46609104350339    5.74558443922751    0.69555399355131

