57
CSD_code = PFEPPT | q = 0 | S = 0 | Stoichiometry = C28H20ClF5P2Pt | MND = 4
Pt        3.21473736800317   -0.22772753003478    9.29139271930659
Cl        1.36230742552536    0.35047855752294   10.73463508591884
P         4.80149098115639    1.31062435497350   10.05941871520776
P         1.26813688356359   -1.36425712518462    8.43419064399480
F         5.90918832229483   -0.61099351582177    8.23003304180711
F         4.56874790163767   -2.29007865416870    7.94436851422705
F         4.15356872429261    0.91322739290207    6.54767747184387
F         5.16328570135129   -0.75708425849528    5.63834430030169
F         3.08244629597920   -0.91217812511883    6.16334979621775
C         4.59864743610384   -0.91691756502243    7.98959275539831
C         4.27509652281058   -0.42227867911779    6.56944980085054
C         5.14506057672761    3.07838970039301   10.12955954630683
C         1.48879914782691   -1.28758326585232   10.15070078996677
C         4.03072304368961    2.51521868075671   11.13036140261965
C         3.69438089636311    3.56448446482951   10.09873352300990
C         3.37951895798750    4.86409010921974   10.67478733585688
C         3.40578746872860    5.06736793890462   12.00820793173054
C         3.60818072979624    4.00548527148847   12.94303910904980
C         3.88191897075121    2.74767099252095   12.52312900686493
C         5.88906046788968    0.32515322915899   11.10998853473777
C         7.01416731244433    0.89791509645640   11.68979693567520
C         7.81338985765587    0.13385518971275   12.52009879233968
C         7.49449223337141   -1.19221358302083   12.76803263432945
C         6.37183381986536   -1.76225577282645   12.18804340746317
C         5.56635559624985   -1.00489816919190   11.35899070179213
C         0.95501508525736   -3.03141776670832    7.86089167795800
C         0.93252081000538   -4.07281579697231    8.78504404810148
C         0.72653924459798   -5.36517344027046    8.34241504118061
C         0.55317627345348   -5.62027496309200    6.99015549670650
C         0.59259906607237   -4.58204665512787    6.07221945721161
C         0.80018254271583   -3.28429183915603    6.50020487915785
C         0.34563565484567   -0.12476284713040    7.49757995344905
C        -0.89396920261648   -0.41651321794402    6.93711315691457
C        -1.59519043117685    0.58527302222676    6.29269508022099
C        -1.07048075809299    1.86666568438732    6.21154416572823
C         0.16174694514608    2.15572256694938    6.77666389888756
C         0.87159621821128    1.16233057911958    7.42367547072882
H         3.09592049648173    3.29158479588065    9.22547241026706
H         3.08959743596274    5.65667474949397    9.99928112439212
H         3.18162776611167    6.04760242796163   12.40469588504729
H         3.49722194892945    4.21701527701950   13.99596247112465
H         3.97771526172355    1.91693939134358   13.20878689344929
H         7.24509601946973    1.93156680963364   11.47769672200000
H         8.69028067880762    0.57169284551001   12.97396155341607
H         8.12341150059796   -1.78523885285169   13.41571867097943
H         6.12536265062728   -2.79536033093736   12.38389953479402
H         4.67592883623945   -1.44571571698636   10.89910429841080
H         1.07538969464891   -3.85266266114378    9.83257429456441
H         0.70212872426470   -6.17773654703370    9.05275755691975
H         0.39415133568242   -6.63250666112275    6.64987875036651
H         0.46946440651737   -4.78589965119195    5.01922510143722
H         0.85488174756675   -2.47074809157592    5.79083282310881
H        -1.29695776509008   -1.41726137574932    7.00877013190325
H        -2.55665944510073    0.36627185708960    5.85273105106511
H        -1.62466828551916    2.64237904395256    5.70534848646417
H         0.57102681881755    3.15231884548737    6.71051068374064
H         1.85008608276038    1.37939378395801    7.85486673344767

