55
CSD_code = PFPBTI | q = 0 | S = 0 | Stoichiometry = C30H14F10Ti | MND = 12
Ti        1.74019770401060   11.07051090161217   11.32905659043057
F         2.18216833673039   10.07161293052807   15.63816631453560
F         2.63558686230593    8.71169696635661   17.94586002178897
F         2.60317100993817    5.97920437575873   17.94439447289206
F         2.14747437369723    4.63204718197087   15.61911229104377
F         1.75452699535970    5.98783715119482   13.31585839558746
F         3.83515734013172   12.25895659929221   13.05738102234927
F         6.33654426649555   12.58674339203244   14.04452482456526
F         7.83809239251829   10.38902838646341   14.73066107401593
F         6.79064096029929    7.89228153783716   14.33201747679654
F         4.33135917311672    7.57852961234891   13.35316760572543
C         2.57836509343134    9.82477516362656   12.78569215129164
C         1.70745647798607    8.86491852269064   13.19893611121311
C         0.49747431726475    8.67245889184800   12.40636002423172
C        -0.49875266006353    7.73939311296141   12.70123985180726
C        -1.56142360893799    7.56958819679448   11.83562509517758
C        -1.63774027702120    8.32726325727064   10.67809296656795
C        -0.67912669527365    9.29706778053530   10.41625759108118
C         0.38952431893331    9.50522160565824   11.27649477641560
C         1.92702992393869    8.06714402945911   14.42435865413899
C         2.17477596994486    8.72711077781522   15.62698512686821
C         2.40317015573133    8.04317009516253   16.81316467826982
C         2.38890810265780    6.65129557600395   16.81323248144982
C         2.15442684953439    5.96621816830557   15.62434154796120
C         1.92998036076108    6.67197900016039   14.44712339496045
C         3.92225078578718    9.92545687820117   13.31633210326212
C         4.54015123562101   11.17623015844242   13.45895953920581
C         5.82816908207337   11.35645506592915   13.92961151607904
C         6.59662846713039   10.24364723553733   14.26392594686867
C         6.05543678378294    8.97601750617591   14.06776746223091
C         4.75835399478724    8.82810603032887   13.59746668627245
C         0.57008694324242   13.18056591500001   10.99462654917619
C         1.48206476624702   13.24456874195489   12.06646704080959
C         1.03675472296440   12.35740298817500   13.07449143450444
C        -0.15204551351992   11.74731620858948   12.61012623064122
C        -0.43138070515610   12.26073246650204   11.32552088008750
C         3.86995521041728   11.23567128658314   10.27804494587848
C         3.43357721619752    9.90030215394547   10.13996848428851
C         2.25378549172050    9.90717316819564    9.36166019684216
C         1.95450269579566   11.24833964788096    9.03997332075072
C         2.96375755921752   12.06511508075543    9.59805059893623
H        -0.45239451489400    7.14904031780181   13.60470375368885
H        -2.32779305037422    6.84288523754630   12.05935515734297
H        -2.45513165099041    8.17648604169784    9.98760944207426
H        -0.78069181121231    9.89412863847673    9.51408114603579
H         0.57541913403547   13.81803081956434   10.12012206203569
H         2.28653888504948   13.96055989991167   12.16402737163992
H         1.42160155131365   12.28968338793660   14.08465413945292
H        -0.80703105820566   11.11451412201093   13.19545133686060
H        -1.32121927431396   12.05337543605230   10.74816877160423
H         4.80923479579400   11.55278670398013   10.71149757311784
H         3.97653953434934    9.01311085568785   10.44197170357480
H         1.76569993853473    9.02857964648808    8.96261714249632
H         1.17862548208800   11.57675172574088    8.35884212988274
H         3.09246555899120   13.12591342138355    9.42660079296141

