24
CSD_code = PHGBAN | q = 0 | S = 0 | Stoichiometry = C18BrHgNO2S | MND = 2
Hg        0.95133574512472    7.38462729679577    1.90465289261175
Br        2.89624282560363    6.05233359425128    4.73170345730288
S         2.17564487439881    5.42274153243585    0.29072252927904
O         0.72763952222341    5.53906859720599    0.32998493318891
O         2.73933237978545    4.30954632555421   -0.39568331707105
N         2.66227732580814    5.53955817278472    1.84630697897131
C         3.45130200975354    4.60850199993127    2.34700882614379
C         3.72224075224075    4.61363598821581    3.80331382202260
C         4.48120225834139    3.69274599149731    4.47944796683787
C         4.95856741085216    2.79651874431975    3.64181271657155
C         4.75552464592066    2.68502412369731    2.36590529116196
C         4.06036129830644    3.55090697500266    1.70038621868106
C         2.75103074064914    7.00367344002056   -0.35540142476875
C         3.61949999853809    7.16368544882840   -1.38315270933244
C         3.95290384556308    8.39673932899516   -1.72665448117646
C         3.46934171240983    9.41356858000085   -1.09404841921919
C         2.62135540225025    9.40641445138835   -0.08208370666153
C         2.23331499748269    8.16834568215120    0.32423644326110
C         0.17446937970473    6.28169979894841    3.69227492054104
C         1.00425724607722    5.63014353058305    4.66708659238481
C         0.51629550186734    4.69133583578897    5.53471364178160
C        -0.77109398672456    4.38757524539906    5.42199067801691
C        -1.48083382572681    4.99529494667611    4.52692980375436
C        -1.12901206044487    5.90791436953959    3.64874634572176

