24
CSD_code = PHGFAN | q = 0 | S = 0 | Stoichiometry = C18FHgNO2S | MND = 2
Hg       -8.20475866890204    1.06412317034595    9.84014658060556
S        -9.51987672031936   -1.68731702721463    9.96751455159669
O        -8.28707767808737   -1.18062906757879    9.37479717023340
O        -9.62734329186368   -3.09265154516640   10.12455782011688
F        -9.36082505602755   -1.71692101652568    7.01303380488293
N       -10.87896125910922   -1.10474550887894    9.28705349599382
C       -11.12841820395858   -0.63889423014516    8.11737208436527
C       -10.01937760257186   -0.51717187000834    7.01954433031369
C       -10.49729937559313   -0.05062974949754    5.59329388526811
C       -11.80138296102577    0.05185219637705    5.29674049997754
C       -12.55746916530643   -0.31545235237384    6.33710121695826
C       -12.38596263100209   -0.33526581404475    7.60187513328592
C        -9.67074887513546   -0.85930098329106   11.56881213080115
C       -10.30303318351127   -1.41998123808640   12.62776973410031
C       -10.38055528770970   -0.74219106750114   13.75810492532330
C        -9.86635357830720    0.43900113724659   13.84055346288505
C        -9.22613737332424    1.12209424641649   12.90849586183422
C        -9.12021409378626    0.46447158088899   11.71882887171943
C        -8.12594606208566    1.41130036328313    7.59764896617554
C        -7.49895404674693    2.22407652423129    6.70804414631980
C        -7.71843133601363    2.57263088626621    5.47036824416771
C        -8.65884687020348    1.81707385935699    4.90463437943979
C        -9.36403919171383    0.84308980335825    5.52247619732519
C        -9.04988748766418    0.64803770253299    6.92023250629390

