41
CSD_code = PHHGDT | q = 0 | S = 0 | Stoichiometry = C19H16HgN4S | MND = 3
Hg        0.38088240021052   12.92625334384484    0.74904819500030
S         1.94962387802881   11.21627589250556    1.81716229936823
N        -0.87284282699628   12.02006113788807    2.80414851182289
N        -0.26805584879615   11.13204739945702    3.49154688204682
C         0.94900696555306   10.69043925545632    3.18044145494593
N         1.38575070013021    9.77694353659288    4.01254122016704
N         2.56200346803235    9.26047351728243    3.82796674736746
C         0.92318850748981   14.09782096888614   -1.07640611379656
C         0.08758250665888   15.03431215472856   -1.68306302029048
C         0.50080274712401   15.72556543583686   -2.81137975330029
C         1.75249558939598   15.49554247339030   -3.35348710106876
C         2.59187927066441   14.56797492568073   -2.76349230817680
C         2.18176596120272   13.87479413803571   -1.63504264314634
C        -2.13196016023993   12.38508440760982    3.25114393584162
C        -2.83317695092976   13.34921546906832    2.52259333907918
C        -4.08937265740445   13.75061879282220    2.92663255720288
C        -4.66385306836799   13.19751384959891    4.06149321090901
C        -3.97420081701039   12.23878324429377    4.79043651883846
C        -2.71830780299811   11.82980183860492    4.39583262543681
C         3.09441844389187    8.29231988203377    4.64692031515101
C         4.36807529276874    7.79157411002680    4.37007997424381
C         4.91255617417391    6.81735717015343    5.18261153079613
C         4.20089784696432    6.33528878994599    6.27080019142513
C         2.93590997448789    6.83409473753557    6.54638465655426
C         2.37801676864891    7.80776190458536    5.74391699741597
H         3.11242157716573    9.59482099479658    3.02526448256463
H        -0.89818829187434   15.23537283100107   -1.28173875865173
H        -0.16227990376485   16.44832963421034   -3.26525673811666
H         2.07207886581883   16.03797165237007   -4.23153801224211
H         3.57172704201456   14.38041038269102   -3.17887410857695
H         2.85922576011051   13.15118320710140   -1.19061352023430
H        -2.37467975969002   13.77698446762697    1.63544942770788
H        -4.62407269573005   14.49715450155853    2.35834392275447
H        -5.64673602028553   13.51364962414528    4.37706913895288
H        -4.42405905324717   11.80929822300122    5.67343635877396
H        -2.16635411086306   11.08579371162243    4.94892068686467
H         4.91756293606023    8.17096204644466    3.52084407691724
H         5.89725945929494    6.43063873657508    4.96699934751339
H         4.63120411299464    5.57278320873619    6.90181966729439
H         2.38240403646686    6.45838231636431    7.39383318254443
H         1.39689968285141    8.20994608589676    5.93801062209516

