60
CSD_code = PHMTPT | q = 0 | S = 0 | Stoichiometry = C29H27P3Pt | MND = 4
Pt        6.73274690691783    0.59967276430489   -0.02975355645593
P         6.50454802713537    2.41677039063516    1.45383527547868
P         6.49808949270756   -2.30438378839860    0.05431000197467
C         7.25332063781930    2.95813209493297   -0.01210921242287
C         6.85232027722869   -0.98989682098532    1.28862947996012
C         4.66349471538717   -2.40958319444879    0.08466375421177
C         7.31322737514793   -3.80858168287813    0.09197836922669
C         7.34416236498333    3.24812674293539    2.81837356689396
C         8.65563362370338    3.67981324667587    2.64945265755636
C         9.32307815810853    4.27629995262321    3.70194428390052
C         8.69301457109341    4.42984894240357    4.92732532736580
C         7.39386697732402    3.97953808431694    5.10267984288026
C         6.71975333337182    3.38079113623448    4.05500059912720
C         4.72912358377885    2.75721410101247    1.66798850029718
C         4.25871466980190    4.04819041510127    1.87809620858899
C         2.89639874793754    4.27186856566596    1.94421980710385
C         2.00812854679605    3.21608117149862    1.80691220897293
C         2.47814600576949    1.93037787792216    1.59415396056231
C         3.83891707091157    1.70188309375805    1.51560261063606
H         4.25302361411680   -1.39944939788576    0.03307521560456
H         4.35718789526341   -2.90490114416933    1.00469494021600
H         7.89539838246150   -1.07582325316661    1.62723176701589
H         6.18927710873516   -1.02403289075500    2.15937815682203
H         9.13274472061582    3.55017078598590    1.68815998340679
H        10.33807598955297    4.62164775643298    3.56927302277545
H         9.21674394715300    4.89566452747409    5.74894580456892
H         6.90742335623986    4.09056522931606    6.06102143045972
H         5.70818919275819    3.01985599945534    4.18779763498829
H         4.96184399395573    4.86322455233656    1.98741165929489
H         2.52365593452252    5.27315668358484    2.10390562795799
H         0.94534064837432    3.39851971365891    1.86416371785298
H         1.78315201420327    1.11017173020744    1.48922661668543
H         4.23649732293291    0.70472465111368    1.34298698630441
P         6.49489247254645    2.42493021653345   -1.47946441343372
C         6.80804091723819   -1.05002415900357   -1.26037791146591
H         4.33437411887660   -3.00236617146538   -0.76729654655547
C         7.33857041070539    3.26116718783474   -2.83971784684589
C         4.72246074570180    2.78518579874311   -1.69412285332146
H         7.84339079783355   -1.15779156556259   -1.61710359240836
H         6.12359875360744   -1.13049442482748   -2.11118546670944
C         8.65660734861026    3.67153356066735   -2.66891647961355
C         6.71117639186667    3.42470994542294   -4.07073142271214
C         4.26413138609346    4.08733005648904   -1.85664228164697
C         3.82242059594228    1.73167201196044   -1.59585614349232
C         9.32936476155436    4.27521622575239   -3.71373802331004
H         9.13524671230634    3.51844364977292   -1.71157746870320
C         7.39116258687003    4.02928525920313   -5.11161690383029
H         5.69313576444945    3.08340222040859   -4.20545813180758
C         2.90455152831533    4.32506419079667   -1.93004846338409
H         4.97480732833990    4.90041451316825   -1.92416554473532
C         2.46442181483176    1.97468152844824   -1.68195755643948
H         4.20922267418337    0.72520194374521   -1.45936174572847
C         8.69756610992319    4.45672132323078   -4.93438007086299
H        10.34989831937819    4.60304467503738   -3.57919620528269
H         6.90271209512688    4.16392178949344   -6.06606080525376
C         2.00672319716739    3.27169507486346   -1.84743906167158
H         2.54147422970809    5.33505988247296   -2.05304956013211
H         1.76176383732055    1.15663560334101   -1.61974908317236
H         9.22563073553867    4.92709637951982   -5.75061842574927
H         0.94611515912661    3.46480524693335   -1.91074424139014

