43
CSD_code = PHPCMN | q = -1 | S = 0 | Stoichiometry = C22H15MnO4P(1-) | MND = 5
Mn        1.00669349061368    4.43942190369130   10.06503618229651
P         2.59155442532671    4.89751092948149    8.64333258155807
O        -1.13163702027972    3.87046438353084   11.99906892947891
O         0.86307525763662    1.70183313964031    8.99670411086573
O        -0.57976464038526    6.61458397202843    8.87545609024117
O         2.93169250500280    4.99027696454181   12.22146489107512
C        -0.28098498672339    4.09679024535621   11.23113314955741
C         0.91862154622036    2.78660462112937    9.42174744640149
C         0.04280011471948    5.74687380127750    9.34458720981338
C         2.16353807033151    4.77584570176405   11.37101416621250
C         2.78020361114701    6.62730145181968    8.05634728194215
C         2.93772262588844    6.99842161414374    6.72625198865975
C         3.03354693418126    8.33757367095773    6.38700472372747
C         2.98084951023559    9.31484877119111    7.36535937769723
C         2.82350212330147    8.95178830700024    8.69422644782458
C         2.71490075462138    7.61820008737865    9.03450972966496
H         2.98069216159096    6.24545105721293    5.95153392896270
H         3.14729325896293    8.61846776913397    5.34816516582423
H         3.05416184470889   10.35914078722011    7.09301943789040
H         2.77635996271635    9.71198608612897    9.46200481961302
H         2.56560326553861    7.32091122754390   10.06752556146743
C         2.64253059496024    4.04541767989949    7.01660667100646
C         3.81637373039196    3.66155266514490    6.37562014953950
C         3.75878262744622    3.03090233915218    5.14528335420032
C         2.53724866019398    2.78795022953888    4.53925551391784
C         1.36546437281676    3.17922650196463    5.16709839170035
C         1.41933528807344    3.80059814827750    6.40005340572380
H         4.77495962215306    3.85757735407024    6.83719002401451
H         4.67491519974240    2.72793753488211    4.65533638713732
H         2.49916707507947    2.29224884099913    3.57850529886168
H         0.41000733226799    2.99287830218612    4.69628945469721
H         0.51002052869188    4.09866610508257    6.91237829696832
C         4.30971728226926    4.56630602113101    9.18977679543678
C         4.58082210112420    3.24291504685206    9.53640101074983
C         5.81830591585738    2.88642367618953   10.03111765761967
C         6.79776302663509    3.85360247734641   10.20400736872737
C         6.53135205375969    5.17047339975175    9.87370753610957
C         5.29397577327560    5.53058039652044    9.36589814325526
H         3.79725385961180    2.50226572642756    9.41729854272451
H         6.02100740658215    1.85703687639530   10.29387569566445
H         7.76480790617963    3.58009365392070   10.60408598955065
H         7.29151186852789    5.92750835456574   10.01537405398979
H         5.09735295900510    6.56254217752924    9.10824703762896

