29
CSD_code = PHQUMO | q = 0 | S = 0 | Stoichiometry = C14H8Cl2MoO4 | MND = 6
Mo       -0.58660267125925    1.42992202190645    2.80079027050566
Cl        0.21969794543186   -0.37886296245618    3.97885612546207
Cl       -1.80469155907225    3.36956012755522    3.04521984016690
O        -2.22743360029205    0.95540659665709    4.44759642941587
O        -0.04907389524780    2.25720059002794    4.95732472394553
O        -1.48409766802626    0.66352207062079    1.66871784708507
O         0.81117676041736    2.03611555460479    2.20681660452738
C        -2.07563155206955    1.31829647473522    5.61092103642971
C        -0.80475739224169    2.07686067621380    5.90836613551217
C        -0.56297057167714    2.52879774860970    7.26035762887109
C         0.61941175212531    3.22901877643968    7.52536291723545
C         0.89656417787638    3.67508262554524    8.80025470136666
C        -0.01280439421801    3.41885526386437    9.81634732232367
C        -1.18633021182106    2.72690402346947    9.56301964180586
C        -1.49864740150802    2.26339746735023    8.28557724512152
C        -2.73520990632184    1.53216184460225    7.99556810675120
C        -3.68757170533149    1.25579117250726    8.97595481859767
C        -4.85087610207118    0.56298434018951    8.68150940338054
C        -5.10849074620952    0.11854366294424    7.39260928693388
C        -4.18762524699537    0.37535141715474    6.39911752156538
C        -3.00984397468757    1.07438099742622    6.68717967839348
H         1.29963882131142    3.40525487231877    6.70552759669118
H         1.80744380280757    4.21463360107622    9.00581628442048
H         0.19154116776266    3.76099137134071   10.81972168148167
H        -1.85891502044319    2.55329967858296   10.38686708137876
H        -3.53545864562863    1.57961688305166    9.99233027736656
H        -5.56314227040627    0.36915060100319    9.46945401587362
H        -6.01640794511747   -0.41992923200496    7.17118639467488
H        -4.34789194708918    0.04819173466388    5.38262938271688

