87
CSD_code = PHSFMO | q = 0 | S = 0 | Stoichiometry = C44H35MoO2P3S2 | MND = 7
Mo        3.98686844028999    1.29988176104816    4.30227638695795
P         4.18116666546553    1.68213194055785    1.99144035642511
P         5.59931202850695    1.20086552512866    6.06022251310590
P         1.63818884756954    1.21738742280124    4.30964529010209
S         6.07922504888244    1.65908110476269    2.60370044844338
S         2.09290348143095    1.12104169897776    6.25013078380233
C         3.89045580774672    3.23061666205900    4.55662528403138
C         4.01972179716312   -0.62096400792385    3.99579369231469
O         3.98010667680198   -1.74423645079284    3.75968809250445
O         3.79405412271963    4.36505070542595    4.67805140448739
C         3.84800004081666    3.24699773815303    1.13087372397516
C         4.56606249762538    4.39180522299711    1.45593757016563
C         4.22931748762219    5.59939715840938    0.87297451196251
C         3.17703518825687    5.66750195582513   -0.02615277797490
C         2.45886166504363    4.52622273603581   -0.34856677506634
C         2.78849620777718    3.31552526802260    0.23037586173512
C         3.98424465688007    0.44547652000781    0.67189477424823
C         4.82698768250788    0.49231304699785   -0.43425760633358
C         4.70370489130286   -0.46237289189039   -1.42519900361984
C         3.74369983996984   -1.45761758528165   -1.31493992129624
C         2.90525954545010   -1.50236666086234   -0.21330312785110
C         3.02460715460708   -0.55114157430277    0.78431034696849
C         5.86046211422920    2.87840992593280    6.67847988502764
C         5.01080946875512    3.39784267016766    7.65150658159775
C         5.09102013784590    4.73642276609576    7.98884587360352
C         5.99966208550241    5.56249847755687    7.34671183229337
C         6.81886541233231    5.05529178207296    6.35013874320349
C         6.74557352743310    3.71843167768502    6.00653110138253
C         7.27403275197377    0.57408069485236    5.72632840531759
C         8.36929995685892    1.01152177497868    6.46570342218913
C         9.61836622923598    0.46589952472730    6.23675842303542
C         9.78207562778871   -0.52503947045137    5.28219044665435
C         8.69146426206207   -0.97423901033064    4.55708362551616
C         7.43970941516084   -0.42987157354534    4.77939835991582
C         5.25235670001054    0.21220123180282    7.54669700131369
C         4.45992353308813   -0.92359443850647    7.43274967735848
C         4.24050815647821   -1.73112545643522    8.53382543121573
C         4.81556713282647   -1.41279658788478    9.75233220419075
C         5.61774165753478   -0.28867486541662    9.86692531593347
C         5.84329079569107    0.51979547555584    8.76894548159523
C         0.46578320007756    2.58624861443337    4.06717180177542
C        -0.75956307344941    2.54720232264152    4.72593906451291
C        -1.64531262893830    3.59689263875732    4.57958770158591
C        -1.31263888283304    4.67974179325052    3.77868480122619
C        -0.09262369576255    4.71700430340304    3.12434651847352
C         0.80086321064970    3.67042414596422    3.26885922203969
C         0.65622358321912   -0.23981831612370    3.84761559217287
C        -0.10178072798362   -0.20077805952215    2.68056142268878
C        -0.76169922020813   -1.33741755687623    2.25349724214560
C        -0.66135126647054   -2.51244376575157    2.98259833202730
C         0.09530972850380   -2.55167474548604    4.14279188280011
C         0.75851867180061   -1.41857597012577    4.57637236588421
H         5.38928350139187    4.32219260096532    2.15627646184985
H         4.78753248128177    6.48977165016940    1.12203355574851
H         2.91501198013425    6.61282880374565   -0.47830911544514
H         1.63814449435407    4.58187859672545   -1.04898820445316
H         2.22965788633602    2.41813930265313   -0.00545001818028
H         5.57593078272422    1.27199966266011   -0.49522579740245
H         5.35780635037733   -0.43472634785145   -2.28439234515382
H         3.65193200280472   -2.20326611337724   -2.09108252718476
H         2.15944310121748   -2.27912400621797   -0.12683765712650
H         2.37397878019324   -0.57459966050676    1.65038332962646
H         4.28069353111699    2.75124986682836    8.12424987033955
H         4.43383274067695    5.13928673717235    8.74576623001308
H         6.05603883216133    6.60866166506580    7.60978576742828
H         7.50766287539870    5.70681282419166    5.83189152650058
H         7.35873669883339    3.31657344340109    5.20755007085535
H         8.24767250184218    1.78780011592359    7.20852213539678
H        10.46805390632336    0.81549283385175    6.80531612357935
H        10.76081664416494   -0.94573004401190    5.10422833690470
H         8.81573550956865   -1.74738779741469    3.81348446386050
H         6.58889834735876   -0.77422225359373    4.20572626534009
H         4.00842858404854   -1.16656611562824    6.47997779804380
H         3.61821003640983   -2.60908279866584    8.44178375186404
H         4.64015676275002   -2.04010406110021   10.61388406288014
H         6.07008677195114   -0.04152366636572   10.81647802387126
H         6.46809676916102    1.39715494765230    8.86328886656340
H        -0.99637612355511    1.69661275785918    5.35292950330618
H        -2.59616101395362    3.57489270856718    5.09170577919779
H        -2.00798270806833    5.49885028259945    3.66753590274110
H         0.16745947622173    5.56073107880408    2.50179486325645
H         1.75638560348891    3.68815141227856    2.76016782344595
H        -0.16497967039817    0.72227645631340    2.11663341404604
H        -1.35138911000769   -1.30951906252855    1.34858181253065
H        -1.17557243390759   -3.40007124422739    2.64442514191245
H         0.17030573761541   -3.46818700829909    4.70924357338338
H         1.34713073208874   -1.43000486725458    5.48564162262052

