29
CSD_code = PHSMOB | q = 0 | S = 0 | Stoichiometry = C12H6MoN2O6S2 | MND = 8
Mo        1.95697839210788   -0.96673270418455    2.45930351033736
S         1.15297091908802   -3.33959060179911    2.92913323731955
O         2.61553392576814   -3.06122443537967    2.75231232039357
O         0.74491538329202   -3.36046870334148    4.31887336276828
S         2.13473471458627    1.29398340503985    1.28716606895276
O         3.54307705647339    1.50930091240308    1.02731270708746
O         1.81493915704756    1.22501223446053    2.75080127843840
C         0.02202041721724   -1.00792872843652    2.33227613858451
O        -1.12370979025054   -1.07420323642682    2.25079968093151
C         1.98271873364023   -1.26210533940125    0.54753018193325
O         1.97760074998719   -1.39609684678983   -0.59552862529972
N         2.09224727854349   -0.76203057176125    4.57757593778196
C         1.07693660085154   -0.77899368833887    5.41371245055249
C         1.15910233426919   -0.60312160068670    6.81429258761272
C         2.46447369676242   -0.41504696245920    7.12000529918383
C         3.47317412960270   -0.38356417336309    6.33998356696147
C         5.75460851926655   -0.34543257886742    4.32876894423154
C         6.70610205712614   -0.37012152249041    3.32700510132004
C         6.28739177517234   -0.60796193853890    2.02465036736304
C         4.93836516386249   -0.79055003663805    1.77438824348561
N         4.01690422733362   -0.75017994609095    2.72641549485592
C         4.41799349650698   -0.54459614521478    3.98766166523479
C         3.36866553910837   -0.55334003751126    4.98418134146796
H         0.10271369078610   -0.95074848528992    4.98080630789693
H         6.01743290473003   -0.17528657203808    5.36142933795782
H         6.99330481377263   -0.64463402675911    1.21116210353972
H         0.29869745054137   -0.62790395142788    7.45785412134255
H         7.74921806793830   -0.21250604989861    3.55404390163283
H         4.57988859486925   -0.97062766876826    0.77118336613160

