31
CSD_code = PIBDOT | q = 0 | S = 0 | Stoichiometry = C12H10BrO7Re | MND = 6
Re        7.65375879048452    3.38092461116597    2.23678196169257
Br        9.15391147553928    2.32000870662906    3.81161343040266
O         7.95286143465188    4.92005736609836    2.74237244028369
O         9.03605103513608   -0.15642305213889   -1.30245047175880
O         7.44234952053479    1.71884484270911    1.30967853727210
O         9.33223314662689    3.33224341887450    0.70446524461038
O         2.49370808962288    3.57404466264720    2.66717410323261
O         5.95923002410118    2.94569253043311    3.26823683300479
O         6.04137913636839    3.99329942705648    0.76593735244496
C         7.12640054025941   -0.92014491146400   -0.06288542278274
C         8.14879932329660    0.13307397078474   -0.32481028795213
C         8.23076153058440    1.32192789152819    0.35517876604099
C         9.29059294372971    2.27718140188152    0.03624837574195
C        10.18020196637953    1.89846718019376   -1.00886986974260
C         9.99679702982897    0.69834001857432   -1.61311122610384
C         3.44572780100081    2.65589515023622    4.66904869853037
C         3.62529172276176    3.19781884735115    3.29274350989132
C         4.85228027465017    3.32390211072563    2.67869749661071
C         4.92868970386168    3.87532714430678    1.33574678897344
C         3.68593199132757    4.23896520525791    0.73778095447123
C         2.53972911525185    4.07208993549826    1.44286330145487
H         6.46543954495675   -0.58653972146193    0.73171731578171
H         6.54567253900986   -1.12273975858589   -0.96210898811759
H         7.61193008534250   -1.84661792926524    0.24121502664807
H        10.98160524924805    2.55790948663955   -1.29358242331487
H        10.62882521256100    0.33205868770377   -2.40933952559649
H         2.94143897097379    3.38660705509308    5.29922183744229
H         2.83722005718229    1.75267843992707    4.64822442794077
H         4.42300628314031    2.42810983138020    5.08412495758108
H         3.67632133160269    4.65218182577370   -0.25665573628347
H         1.56175412998348    4.33221562444686    1.06424259159790

