51
CSD_code = PIBJOA | q = 0 | S = 0 | Stoichiometry = C23H24AuClNP | MND = 2
C         8.39237675080698    2.54680399458005    5.83026219290964
C         9.30202217231826    1.55291589528976    6.16805823370598
H         9.84787646541143    1.05124443866552    5.37623805912004
C         9.51503990025299    1.20806865464718    7.49146819405613
H        10.22672050319308    0.43400021558924    7.73767134651520
C         8.81973074807503    1.86020766925067    8.49485832528198
H         8.98758737653856    1.59801844957509    9.52895006226846
C         7.90783931014877    2.85329548966189    8.17077266168234
H         7.36233042169028    3.36243812291402    8.95224741704259
C         7.69438475757344    3.19518323530508    6.84929634492508
H         6.97720551440462    3.96681937207472    6.60036764113078
C         7.94668606558367    4.76642646257845    4.33616483417984
C         6.77996099124525    5.45723634767082    4.03923522350258
H         5.93917681242609    4.93464985100121    3.60421715177330
C         6.69977523070192    6.81222195663357    4.30967329836856
H         5.79136370865533    7.35171269717542    4.08266440482248
C         7.77804594095155    7.47762958410338    4.87001682733252
H         7.71060737782499    8.53577488560519    5.07468497870420
C         8.94127890884003    6.78652675236667    5.17189445294547
H         9.78106340665273    7.30471729789162    5.61064364939035
C         9.02504922327719    5.43206677396377    4.90955345907631
H         9.92603118874911    4.87749080387863    5.13917119096989
C         6.52040263476566    2.24940476592132    3.79047886930569
C         5.86029524556345    1.49554952344819    4.75586404506616
H         6.28331608251775    1.38561441706626    5.74302754008112
C         4.65690838197207    0.87974043075701    4.46027252588633
H         4.15139121043656    0.30780910707187    5.22415303881873
C         4.09937115636713    0.98380219303603    3.19313194833051
H         3.16111547033989    0.49732970776100    2.97329717254091
C         4.75652367930950    1.69907456281024    2.21307260652343
H         4.34358782985756    1.77473453748196    1.21725512457023
C         5.96433268870832    2.33103820261787    2.50299086004114
C         6.70337286432771    3.06154563853574    1.51030699511982
H         6.33235997605663    3.03662418943848    0.48571695356462
C         8.52243089902940    4.45260482030011    0.90836158593489
C         9.71729485801616    5.09886329820642    1.60839910096246
H        10.32371221112828    4.34077702331345    2.10064379098976
H         9.38768506735227    5.82242549893280    2.34824159458000
H        10.33637895245007    5.60862705527165    0.87484077944500
C         9.03058584132702    3.55058416761145   -0.22314551709729
H         8.21068186177703    3.06592920061413   -0.74816387807189
H         9.68695783027806    2.78006315128314    0.17659313548251
H         9.59183670791416    4.14365170446506   -0.94026609481129
C         7.62849856932034    5.56571853943439    0.33992381797521
H         6.80697843816891    5.15766523238709   -0.24399317988021
H         8.21707417262437    6.21370463797668   -0.30365654456663
H         7.21718362128223    6.16249722439423    1.15208427136006
N         7.75118188959671    3.68096554965400    1.87475370726490
P         8.15174858264939    2.98317415137983    4.04948585548599
Cl       11.39303307017281    0.82895023049303    1.73701569690498
Au        9.79720743128693    1.91998228792365    2.93730424846762

