69
CSD_code = PIBKOB | q = 0 | S = 0 | Stoichiometry = C28H30Cl2N6O2Zn | MND = 4
Zn        4.34074989563094   11.95363921348104    3.63204735371231
Cl        2.99202872502259   10.66774414653427    4.84558109570068
Cl        4.45208485712669   14.07624676574601    3.07420713440166
N         7.64828359822389    8.80904733684862    6.51645036924158
H         8.34285062882646    8.74803896682918    7.24779282905749
N         6.19261728802195   11.59377383593160    4.66169241806535
O         5.23564729357120    6.21680456322097   -0.60034166051747
C         7.47085371380997   10.07296240348882    5.97771317619565
O         6.53178273745721    7.50195480441845    4.98864480987491
C         7.11985890137157    7.61211833264810    6.03942169069506
C         5.06141869508275    8.50158756081799    1.16585578684633
N         4.80706043759685   10.73917633258090    1.97194937878178
N         4.63342431578134    4.91692231305317    1.16880362088328
H         4.67125406096153    4.85925296846928    2.17621327378154
C         6.38739247889616   10.38221945302751    5.15647444707460
H         5.65190478377625    9.63303848020074    4.91471192061453
N         4.93132623964983    7.16009381845723    1.46769880827239
H         4.66956437631967    6.97158426650648    2.42629735392641
C         4.96286981096027    6.09780112212894    0.57137794504262
C         4.70790754434105    9.43116138120185    2.14641948478564
H         4.31358984805885    9.10612581512266    3.09921584973030
N         7.38600762104455    6.58491808206227    6.89570499867842
H         7.61141058411480    6.81814114102843    7.85209249469636
C         7.00020606605155    5.23467588558651    6.69277997529932
C         7.05314349841170   12.56473394903550    4.94297620422379
H         6.84019630394147   13.52836039542187    4.50414823192228
C         3.70049037647676    3.51216019164246   -0.59635961824204
C         8.44984200861713    5.14956115057803    4.63405421863327
H         9.24483485366247    5.69037383294871    5.14633949590037
H         7.90601834167668    5.86814342907566    4.02134206929622
H         8.89508737064046    4.39956076231767    3.98596319765449
C         5.52548077503847    8.99298763719906   -0.05654643872702
H         5.79328715420016    8.30931149353313   -0.84518750730783
C         8.36284012682942   11.09883365144259    6.29442521380283
H         9.20280198965485   10.90869238657915    6.94826834431006
C         5.25510626690000   11.20821914703470    0.81121874898462
H         5.31506170628447   12.28287016448901    0.72444819122395
C         5.36594405430575    2.62361124053092    0.93816481216993
C         5.61585349024065   10.36312000745145   -0.22448518931746
H         5.96763898877561   10.77425120778830   -1.15725726310054
C         4.57027208266546    3.67853591001564    0.48292669572853
C         3.67174097921549    2.27740049606633   -1.23294001309880
H         3.00965740949840    2.13815322259543   -2.07475226599675
C         8.15057049437106   12.35676723271205    5.76299807979212
H         8.82348836038392   13.16923424752340    5.98577195055004
C         6.14735084439059    4.63773621833223    7.62529972921167
C         2.80570124150461    4.61707753266245   -1.05903647353783
H         2.01578760221627    4.22670811241885   -1.69530424595128
H         3.38242646074370    5.34843461389222   -1.62444802695201
H         2.35813304373943    5.13357596086667   -0.21098369823686
C         7.52471652404413    4.51070662214188    5.62153522848890
C         6.33509118680253    2.56709824791353    6.41529785645480
H         6.08062138962753    1.52355294774259    6.30769319763770
C         7.18047701123798    3.17037508692089    5.50353349781755
H         7.59869613805878    2.59183415875595    4.69412061319214
C         5.82034954723058    3.29942815176177    7.46965002747238
H         5.15832759447486    2.82962404581563    8.18165837232853
C         4.46149269753008    1.23019406921870   -0.80023567302327
H         4.42236469593035    0.27723822599583   -1.30613747961088
C         5.59809892585398    5.43620557385591    8.76991806061533
H         5.15331183909452    6.36508905351224    8.41432448321468
H         6.38489676254452    5.68433990169201    9.48497873292112
H         4.83609778357763    4.86804826835609    9.29592638463657
C         6.27983466911400    2.82082954467267    2.11065502159085
H         6.91349295721873    3.69470753306143    1.96243447422249
H         6.91460019813514    1.94822404198516    2.24097261840532
H         5.70883263386491    2.96715020916208    3.02934722585540
C         5.29768813923519    1.40190529595555    0.28815982361040
H         5.91175898033923    0.58250583800218    0.63241853634115

