81
CSD_code = PIBMUL | q = 0 | S = 0 | Stoichiometry = C33H40ClNO3P2Pd | MND = 4
Pd        5.28817870288997   12.08950624547028    7.64496053111505
Cl        6.84853866690696   12.80978742312653    9.09986497593230
N         4.97673569936007   10.25296485891919    5.21002305570478
O         6.98560209266319   11.58398575849909    6.19685480698477
O         5.74753725562800   12.42733622099195    2.19179723721311
O         4.59206908402030   14.43435737157681    6.26703244924841
P         3.88169322008069   11.25036392374565    6.11179891114522
P         6.59184078868903   10.23407093948522    5.76507350450511
C         4.50932402298276    9.29609848510647    4.27622711616243
C         4.37084023029919    7.95984682166486    4.63726940633606
H         4.62662028030973    7.65066714059297    5.64021351560164
C         3.89586037795490    7.03686541542991    3.72269106296364
H         3.79080490736383    6.00214345454907    4.01358448816777
C         3.54962260310984    7.43990835570337    2.44423217251380
H         3.17452768278458    6.71957968359640    1.73296819317829
C         3.68489879499749    8.77012692057339    2.08266324071768
H         3.41698507207447    9.09000706588311    1.08658892979671
C         4.16266724441761    9.69819736688277    2.99079961098918
H         4.27457476841677   10.73519382403483    2.71448942904103
C         3.05467023343817   12.26314207475098    4.83681921261637
C         3.80979439974627   13.12296771301997    4.02915443695821
C         3.17588356770891   13.84189529038599    3.02180996863700
H         3.76918345605455   14.48298359006963    2.38631746349723
C         1.80622040959973   13.77000629230535    2.85101096774598
H         1.32872850696317   14.33532891088176    2.06422913763337
C         1.04660406831362   13.00735656767882    3.72192739206021
H        -0.02978788828651   12.98923068790379    3.63398913417065
C         1.66761831005423   12.26383422434688    4.70792311131317
H         1.06498343885860   11.68463266697398    5.39199253195498
C         5.24454030788116   13.38392377266083    4.27054933747052
C         6.20795927908056   13.09553981100886    3.29966638638591
C         7.52624235276548   13.48625945134695    3.48744693643347
H         8.28029791081062   13.27753755305124    2.74562862517847
C         7.87910012137934   14.15151479218812    4.64896173584628
H         8.90928560641695   14.43786448009162    4.79972465184712
C         6.94387931569558   14.46208832424857    5.61586512023740
H         7.25838514282524   14.96932015326629    6.51368788297788
C         5.61358356347130   14.09001584438381    5.42776740881722
C         6.63931197930625   12.19733320746841    1.13087626647867
H         7.04019588321009   13.13457117595903    0.73188489389537
H         6.05509095019898   11.69821014864494    0.35833602639325
H         7.46956269434007   11.54792934130765    1.42841895011759
C         4.88261036984886   15.37088021176909    7.29381838407710
H         5.58008934253129   14.95095431000230    8.03125290675155
H         3.92642186070767   15.57923929510515    7.77234529865369
H         5.29161389934577   16.29458581581511    6.87047735339648
C         2.59517532370387   10.00649923522867    6.51595252831035
C         1.84480848710841    9.34415277137083    5.54561928185289
H         1.94244114113678    9.61060536926327    4.50378317250075
C         0.95773280486814    8.34757355809116    5.91035944012421
H         0.38575167241055    7.83989862954223    5.14742581960958
C         0.80060022212667    8.00154914506199    7.24266050587805
H         0.10517196415281    7.22355619493720    7.52103963055264
C         1.53381433850504    8.66086744296437    8.21429092624028
H         1.41220492594348    8.40160558179849    9.25559603472720
C         2.42799495190165    9.65320223976070    7.85124039732020
H         3.00524038650442   10.16966290869757    8.60669250009324
C         6.85587304725045    8.96037777463103    7.10934674837062
H         6.90848111512468    7.97288017884957    6.63860388304645
C         8.19323183861434    9.31799059213383    7.74710715611746
H         8.13806566734886   10.32402884228842    8.16582318309108
H         8.99982762797914    9.29736948305743    7.01715900152642
H         8.43255529668467    8.62121885077381    8.54896221589142
C         5.75505244775342    8.96050075843880    8.16219123832495
H         5.98227772775848    8.21934920342495    8.92834882811901
H         4.78480651390081    8.71587312437388    7.72722081085743
H         5.70003945804644    9.95037634164682    8.65403847146685
C         7.54840536846289    9.74724762682530    4.24622170523605
H         6.95075547052971   10.17760922081087    3.43243034716408
C         7.70514846910311    8.25144379821390    4.00833256713763
H         8.19874389569079    8.08784588938625    3.05065805171142
H         6.74338501080012    7.74507556776604    3.98286215441511
H         8.32294211701872    7.79938253356792    4.78181167080296
C         8.90813841647924   10.43635375163545    4.27566896101592
H         9.58850806155585    9.92272342742975    4.95160733048108
H         8.79925917163378   11.46389209557074    4.61429476595210
H         9.35751683256885   10.43427704086663    3.28323042611456
C         3.86974742625242   12.61377814397794    9.01660900369428
H         4.14159852122806   13.56757473694928    9.47081592536221
H         3.84196031704961   11.86612667442927    9.81767744852621
H         2.87745338572322   12.70667828376468    8.56190370958712

