68
CSD_code = PIBPAT | q = 0 | S = 0 | Stoichiometry = C31H31ClIrN3O | MND = 8
Ir        7.91734311529945    4.44676446113094    4.58628399913021
O         7.11114527096854   13.28610071490147    6.42221363213745
C         7.21235294178918   11.93554147893036    6.31788620787838
C         7.38119502554363   11.05764940781992    7.38405075753793
H         7.43396036104335   11.41844659534579    8.39889996055944
C         7.40333884279626    9.18016912312992    5.86352045473438
C         7.12926129701601   11.41999976421121    5.02194285743858
H         6.99697052377762   12.11026464992015    4.20370634569235
C         7.21393352477133   10.06414258575558    4.80113491887565
H         7.15393915086847    9.67743085648880    3.79502327000125
C         7.48077144266993    9.69754484567889    7.15102791662790
H         7.59132771623603    9.02226094952431    7.98571214031947
C         7.09969022342552   15.37429410787960    7.57405621786446
C         7.21350728767409   13.87760566400834    7.69789998640455
H         8.17357273101947   13.63730987705155    8.17289864491487
H         6.40697399773150   13.51816123088827    8.35579978260053
C         7.50331138259926    7.73417220366198    5.61318114845938
C         9.91987437077529    5.34502417311136    6.55049397102916
H        10.25754067707301    4.32561071859047    6.59337729066978
C         6.42660332933368    7.10352047675618    4.98337352590456
C         8.62946432398064    7.04253410188770    6.06781750501526
C         9.71555693276741    7.54360204159421    6.83253593541228
H         9.86375847793782    8.56896592284033    7.10731447968012
C         5.15014223508607    7.65814869110417    4.70211972346296
H         4.86763716807368    8.67899523827490    4.86806847082386
C        10.51141398554511    6.46868447265679    7.14764335677209
H        11.41176352924966    6.46885923228091    7.73054192823428
C         5.16925217014881    5.48328611806550    4.22930562969673
H         4.88591265372612    4.48634980561892    3.94489937562016
C         4.36355377202752    6.63247674896334    4.23668695975114
H         3.33387828271305    6.67870020371635    3.94015348150801
Cl        6.97708101932379    3.27683741447198    6.39205203726196
N         8.81558902485158    5.68348165928274    5.89701628597787
N         6.39170433617422    5.75996035395147    4.66546579883802
C         7.69977719183952    3.89716260993034    2.38485684140358
C         9.80361949938019    3.95990780225063    3.37295002678777
C         8.86839877952580    4.71378237215449    2.58593628869407
C         9.16565840408834    2.76581396214803    3.77880201662369
C         7.85654113863091    2.72206882768488    3.15213079616265
C        11.22240836186828    4.36387527080467    3.61415586271769
H        11.79072815566847    4.26083109882260    2.68805668333467
H        11.68909751953869    3.74005507029826    4.37182326714630
H        11.29010621853756    5.40199236990885    3.93619240265817
C         6.59907792357939    4.22055835359505    1.42555661645740
H         6.96371963981103    4.10861896907999    0.40289700736166
H         6.25354423936492    5.24590646048757    1.54939683082389
H         5.74977827626257    3.55565033140559    1.55942156385410
C         9.18601593128255    5.96595469439539    1.83335053991514
H         9.86862459640444    6.59674444775187    2.39897166096403
H         8.28182747377262    6.53453680532233    1.62702611966037
H         9.65943228040032    5.72201009160762    0.87984797712911
C         6.96609785387970    1.52266407862722    3.19341162803263
H         6.01728793950388    1.71485568713079    2.69871817543984
H         6.76441350576595    1.23733374201185    4.22506144259148
H         7.45267454169790    0.68153584942705    2.69689663835472
C         9.76214212425364    1.61062199656116    4.51693604021126
H        10.70506870506282    1.88249087297892    4.98526080212356
H         9.94436940660757    0.78243648928377    3.82967146128356
H         9.07960666604633    1.26446285976238    5.29148333611533
C         6.93117107171898   18.08476535368235    7.50444032939706
H         6.88664692953958   19.16250206356210    7.51826164778530
C         7.50018557695883   17.38566948349300    8.55768391694953
H         7.91242558864360   17.90000554519837    9.41599823826144
C         6.50631036038955   15.97619193362921    6.47079927593635
H         6.12908297943301   15.36786956661368    5.66534618228056
C         6.42606749026407   17.35812512274557    6.43779646407597
H         5.97404941133059   17.85966269410431    5.59423049543345
N         7.58692309497640   16.06814123382951    8.59412742696887

