66
CSD_code = PIBPOH | q = 1 | S = 0 | Stoichiometry = C25H34N5NiO(1+) | MND = 5
Ni        1.70867320991389    1.99413960154823   12.64794156480690
O         1.58132970848607    2.14857593019541   14.45346589472841
N         1.58712637649653    4.13051039959016   12.56651969733604
H         1.80656995638679    4.29561556942883   13.55169208356664
N         3.80309167106875   -1.32472340047904   14.07823814430319
H         3.96590708001147   -1.96603265305803   14.83614346017841
C         6.16188995168972   -1.55186151647925   11.24423799203682
H         7.00599439335369   -2.08546111696494   10.83728147314460
N        -0.56194101901439    1.72079571771321   12.55322849046902
H        -0.71973305514701    1.47012203801037   13.53079548791458
C         1.94249586327540   -0.11858081233205   15.14408695132114
N         2.93982143573305    0.37353887868547   12.94624990794069
C         3.99939209027504   -0.13397950288889   12.22232249537108
C         0.82114407973524   -0.86698408643806   17.14785975177606
H         0.60554440909893   -1.64565491159897   17.86145265619015
C        -0.37086211752747    0.65453894686905   10.31911176558088
H        -0.73556769406345    1.54589252012977    9.80673456043582
H        -0.71138534677688   -0.21569881951776    9.75728712357019
C        -0.85596865927367    4.14731350986592   13.01261488184592
H        -0.55445586808003    3.87802861995488   14.02614147649161
H        -1.66807385213422    4.87188335085303   13.08266524246247
C         4.55133305384880   -1.21908513927503   12.93401238301017
C         1.65812235557702   -1.11344158916027   16.08405169545296
H         2.08163810311023   -2.10006942020372   15.96094072080699
C         0.50164431368326    1.38700749032271   16.37826093490980
H         0.06975848390791    2.36993936957163   16.49438985928963
C         2.74649634735303    4.57924411653800   11.77597955332024
C         2.02349135465929    2.82131494625392    9.94855691900787
C         2.55976856845231    4.18060115895854   10.29989454230561
H         1.89502926849528    4.90451142037065    9.81818917099054
H         3.52536205234689    4.28500662993362    9.79658541345835
C         0.31942562848253    4.81619836485762   12.29693195666107
H         0.13104894213916    4.80981938065882   11.22141279769046
H         0.37417354985353    5.86083216231645   12.62803669623831
C         4.55575481826426    0.24924718482303   11.00571197324791
H         4.16759905203528    1.09275563312423   10.45772094619029
C         0.25581733609704    0.39695292023707   17.29726421340896
H        -0.39335217811177    0.59742318902688   18.13600686672806
C         2.94403629298155    6.10041038445424   11.84727667555850
H         2.99569882846644    6.42644787515648   12.88341937780868
H         2.14117331274828    6.64099111407788   11.35317047708149
H         3.87810956406342    6.37339545482540   11.36405526921339
C         2.86060168908282   -0.34724279685290   14.06058606210175
C         5.63247252529676   -1.94223411715234   12.45780099266478
H         6.04437671748507   -2.76811653620871   13.01541466096689
C        -1.38518397961453    2.90730904357560   12.29346975034948
H        -2.42244014658345    2.71949132176340   12.60846019401739
H        -1.39793692038146    3.09616721515977   11.21755144735228
C         5.63324572098426   -0.47234406258489   10.53529451016701
H         6.08633369023670   -0.19423302594994    9.59624461415976
C         1.90466389024306    2.62926915503572    8.46012326683759
H         2.58378933563977    1.84454730256957    8.12565561021419
H         2.16095792489617    3.54109382979817    7.92936283193172
H         0.89606387541566    2.33647828380944    8.17624559871137
C        -0.96314381542308    0.57874703570415   11.72772271798231
H        -2.05869897653150    0.51649524742036   11.65193309730818
H        -0.60267058839890   -0.33395580940833   12.20997044012749
C         3.98781008493918    3.90280967672596   12.36700966464063
H         4.20407855690055    4.30862821024586   13.35263161918854
H         4.85754121686434    4.06283206005223   11.73582131183768
H         3.82228439093523    2.82210482745193   12.46970567033161
C         1.16348939378732    0.65051042000730   10.33710225395512
H         1.49415026644702   -0.12946512454657   11.02819173023355
H         1.53889439362760    0.39684813501021    9.34255778568290
N         1.70932597469884    1.92089067598137   10.79531362313773
C         1.34807311749058    1.16898812244282   15.26839100225835

