55
CSD_code = PIBWII | q = 0 | S = 0 | Stoichiometry = C20H20N2NiO12 | MND = 6
Ni       -0.00017245669351   -0.00020997994551    0.00000727737163
O        -1.50638800916929    0.68684294302617    0.78431717337987
O        -2.67348288073073    1.74829742017337   -0.79675327960509
O        -4.29619353538916    1.09252475453428    3.57645181943646
O        -0.17596814608940    2.69902455550844    2.45401218034295
O         0.88457851576805   -0.23790818036760    2.01390306463495
H         1.33550350685857    0.56674886120313    2.28660847476525
H         1.58901650364087   -0.89240412906071    1.75351958401769
O         0.75366220107444    2.16183062420471   -0.07152835001341
H         1.71169038334043    2.21562101443863   -0.11318073237258
H         0.46374698024458    2.54451072544108    0.77659426121325
N        -2.37808719096785    2.07481499726215    2.76669600597850
C        -2.31758242636476    1.55395403359651    0.36254886896067
C        -2.90759491397572    2.45298093800737    1.48441131764272
H        -2.64667033209715    3.48752133007329    1.24820613840695
H        -3.99354257139831    2.34389648240626    1.51340023214039
C        -3.12085937970844    1.32566664835670    3.68095903054666
C        -2.16548026461331    0.93904079590955    4.74388345838021
C        -2.35151661741965    0.22207126591868    5.90640533450957
H        -3.32637103887861   -0.15438682173507    6.17386427074602
C        -1.23875838109774    0.00072365362596    6.71314778061991
H        -1.35051882670203   -0.56131899490370    7.62815934351404
C         0.00998748872211    0.48650941198373    6.36022694265569
H         0.85509661046677    0.29633589357258    7.00457570079990
C         0.19530589711298    1.21242598691467    5.18727926750669
H         1.16665492936548    1.59426122767458    4.91430046996782
C        -0.90636231822694    1.42920765451954    4.38727832599154
C        -1.04182668897267    2.13659587786477    3.09401185838830
O         1.50611341322687   -0.68719931934474   -0.78423673923086
O         2.67294155580995   -1.74891987365233    0.79685097018385
O         4.29626276430793   -1.09244227186915   -3.57594439162788
O         0.17586040466335   -2.69910171810386   -2.45439866661079
O        -0.88493934826195    0.23753815462546   -2.01389702446037
H        -1.33572432299620   -0.56715024729850   -2.28673134374182
H        -1.58947672992941    0.89189841005080   -1.75345672247536
O        -0.75408341401213   -2.16224056051051    0.07114275858707
H        -1.71211870419852   -2.21602056031580    0.11265033647623
H        -0.46405920359573   -2.54479711104939   -0.77699893955584
N         2.37803904270178   -2.07491209901865   -2.76668349414423
C         2.31722962688203   -1.55438720401216   -0.36247625391477
C         2.90734304674080   -2.45329583192637   -1.48437786440530
H         2.64633982118443   -3.48785933309340   -1.24836408591216
H         3.99329878053114   -2.34425209064451   -1.51318394609405
C         3.12094578501200   -1.32557328731834   -3.68067790366597
C         2.16573359043445   -0.93875949624885   -4.74368405284735
C         2.35196067934056   -0.22158533011071   -5.90605143670660
H         3.32684728801579    0.15495381309065   -6.17325893696742
C         1.23933008746785   -0.00008527886609   -6.71292651149812
H         1.35122655691849    0.56215586477199   -7.62779397301548
C        -0.00947843671538   -0.48591354023283   -6.36027482864683
H        -0.85447982412332   -0.29564768902606   -7.00473627141039
C        -0.19498297470121   -1.21205759515224   -5.18749532618290
H        -1.16637255021971   -1.59394610532132   -4.91475034407103
C         0.90655630680036   -1.42898247483803   -4.38735688656134
C         1.04181972059842   -2.13659621480737   -3.09419394143279

