115
CSD_code = PIBWUZ | q = 0 | S = 0 | Stoichiometry = C60H48CoO3P3 | MND = 6
Co        1.11831837126180    2.64617781194270    4.53093459213328
P         2.58389347341234    4.08030926631046    5.36911844463899
P         0.61246026872281    3.42525343422528    2.49800523368324
P        -0.64816687745323    3.12954598157445    5.76594904211612
O         1.37923148299201    1.60163605620039    6.04383161063844
O         2.66123862368087    1.92837023482740    3.79782270891135
O         0.13104093627368    1.26320433732972    3.77992862468028
C         2.99534896638409    3.11520366433455    6.79198627747839
C         2.27302556700373    1.96217565777922    6.90462567257822
C         2.44052218049297    1.04566746571062    8.05676728643274
C         2.85645148702938    1.50236432280123    9.30369457782249
C         2.95928543113404    0.62502324442346   10.36682045854811
C         2.64830161202680   -0.71459797154855   10.20043319093666
C         2.22842214372850   -1.17514257720437    8.96351872184628
C         2.12139833233460   -0.30054886663369    7.89935553319112
C         4.18438701701901    4.41456751190085    4.55731498461112
C         4.50979216264846    5.63439396828395    3.97385124485435
C         5.71858339930299    5.78704753152592    3.31765348170851
C         6.60824725439728    4.72902671099632    3.23325048189883
C         6.29791908977671    3.51861805852190    3.83121871123249
C         5.09618762715122    3.36348418419254    4.49487241287152
C         2.12094764781446    5.74092532732861    5.98309816991641
C         2.26769108457867    6.08958557001711    7.31995705806775
C         1.86962939695236    7.33897058791633    7.76175323853506
C         1.31445954971198    8.24822405300850    6.87659195712476
C         1.16132280211019    7.90624907316303    5.54310014208657
C         1.56085430832583    6.65924412828939    5.10012436648717
C         1.99865987503064    2.68189415367615    1.68771210316527
C         2.86472054498268    2.04678982236978    2.52901634984258
C         4.13706497320374    1.46200059879548    2.04016091051028
C         4.85276473663153    2.04148094132414    0.99728571902774
C         6.06095985826000    1.50018920614718    0.59856266221073
C         6.56785220678158    0.37849592328834    1.23388226290152
C         5.86314654021237   -0.19960722915007    2.27696760328925
C         4.65781132073986    0.34152457700904    2.68147889952445
C        -0.90592797302019    2.75077517525502    1.73686700820333
C        -0.80820073947018    1.79622992707790    0.73237232696816
C        -1.94924943990790    1.22923793488067    0.19486061511225
C        -3.19790937838473    1.60529974402378    0.65896393503481
C        -3.30162023301858    2.54593310656902    1.66982509978122
C        -2.16302424868062    3.11218431040964    2.21342309739571
C         0.65817893375758    5.11598284873497    1.78283557725184
C        -0.46406389258758    5.81000672832028    1.34508125307408
C        -0.33554326810276    7.09408001504327    0.84449526916800
C         0.90765763293461    7.70077805827196    0.77869429667283
C         2.03149529547178    7.01376395836847    1.20953833311575
C         1.90568001591890    5.73150966751713    1.70916898375907
C        -1.64688642372017    1.78184893507972    5.20271996066849
C        -1.06633541472674    1.03759521134522    4.21432470476308
C        -1.77718310519811   -0.06834037657817    3.53009981376019
C        -3.16368886804456   -0.19015781857757    3.54889302338790
C        -3.78413504147585   -1.20646222498067    2.84692902468221
C        -3.03400258552884   -2.11187827480986    2.11491465646766
C        -1.65435003604462   -1.99699027482773    2.08895557604338
C        -1.03121448277332   -0.98267588107945    2.78910780954785
C        -0.53726353559339    2.97767562454180    7.57732836709249
C        -0.69036790008583    1.73841452187797    8.18722225353400
C        -0.54009634223410    1.61767974802596    9.55620615813292
C        -0.22792337846526    2.72985277541014   10.32047136355581
C        -0.07563659602625    3.96721045372619    9.71533046462141
C        -0.23044437821322    4.09385476408347    8.34752647704169
C        -1.76271698520349    4.57958283460187    5.66350241253704
C        -2.87201634458824    4.67707207278964    6.49692377609667
C        -3.73619206308065    5.74896754634377    6.37433481517065
C        -3.50116803601205    6.73060596338902    5.42357695524326
C        -2.40072619419546    6.63573278580566    4.58859123526640
C        -1.53838831829220    5.56115561777575    4.70906377893185
H         3.80627589673490    3.38642836656410    7.45005590157572
H         3.07524462862647    2.54937918321013    9.44876195945816
H         3.27785589135227    0.98860805726637   11.33326748391849
H         2.72832583649169   -1.39605353437982   11.03505081409376
H         1.98049943463011   -2.21855557425159    8.83125489356570
H         1.78826063535385   -0.64183884193901    6.93086293724856
H         3.82595150728416    6.46858474515603    4.03839585971214
H         5.96503203248482    6.73779098841912    2.86638597055097
H         7.54432156959101    4.84987396094195    2.70803791695019
H         6.99087497344400    2.69190323809349    3.77422588466068
H         4.84332918560791    2.42187567422773    4.96071549263098
H         2.68417041775121    5.37516163641214    8.01468169438784
H         1.98828555426840    7.60316777132312    8.80296432714752
H         0.99843554020372    9.22011294358473    7.22635049709947
H         0.72591646140180    8.60955137796154    4.84781200808441
H         1.44002684143281    6.38973637743832    4.05964701417263
H         2.16712903394552    2.80697074735770    0.62883165203533
H         4.47518210764190    2.92994881072949    0.51325294046322
H         6.61394654917231    1.95923693373800   -0.20840774089090
H         7.51317984674654   -0.03998096577371    0.91979089336731
H         6.25808437539670   -1.07170168613037    2.77818270559490
H         4.10060646281694   -0.09233819160380    3.49810183729765
H         0.16845855737360    1.48638013997264    0.38952957469134
H        -1.86393691408629    0.48351020003534   -0.58218995484587
H        -4.08818178226525    1.15707898661657    0.24307811257569
H        -4.27357932134857    2.83378140308088    2.04468230142538
H        -2.25094784532641    3.82431454688773    3.02307186366696
H        -1.43831324830402    5.34535256340837    1.38418374234462
H        -1.21329419773996    7.62335059381976    0.50176873514353
H         1.00132471279314    8.70381216222417    0.38892102164533
H         3.00595408058655    7.47791212599520    1.15716401836921
H         2.77838683975349    5.18627923027426    2.04684092071431
H        -2.64302543864694    1.62872012705171    5.58692147943541
H        -3.76387516573453    0.52070918639026    4.09557462386737
H        -4.86135985212011   -1.28946359091946    2.86524122573853
H        -3.52461883861460   -2.90167655810988    1.56459947750806
H        -1.06375445127342   -2.69919833578528    1.51810412809439
H         0.04270740752203   -0.87615900965296    2.77201867190256
H        -0.91162432095362    0.87547866587110    7.57442078497883
H        -0.65412398398011    0.65242755407867   10.02782052201680
H        -0.10116894468972    2.63171240107735   11.38875565594599
H         0.16710057999481    4.83563251118625   10.31121549959914
H        -0.11611814270963    5.05725547856841    7.86798644363337
H        -3.04979554845813    3.91236587657434    7.24089997040118
H        -4.59791418820023    5.82146271276558    7.02236848471126
H        -4.17830722811484    7.56755809745453    5.33450552832793
H        -2.21341806652231    7.39507300297394    3.84288505373540
H        -0.67851955137198    5.47139567067922    4.05881601367599

