49
CSD_code = PIBYOO | q = -1 | S = 0 | Stoichiometry = C24H20AuO2P2(1-) | MND = 2
Au        8.35844382104903    6.24006847331235   11.43097610769009
P         8.47608495304583    7.89640180951705   12.98305595982036
O         7.24047368204254    8.42113255950829   13.61329587694355
C         9.47530286584230    9.29226074324717   12.32175654701199
C        10.49311601524068    9.09315503172300   11.40003559608201
C        11.21801741601822   10.16903425850657   10.92406923718388
C        10.92379683415506   11.45236710823170   11.35818600524090
C         9.89859834877263   11.65730453622090   12.26666320969437
C         9.17785230012931   10.57859239877248   12.74553130233621
C         9.68187575505563    7.42572424784978   14.28869201240112
C         9.40424536271846    7.76732056758197   15.60332183121208
C        10.27845827558656    7.41780908349336   16.61675065198276
C        11.43783556054493    6.72255353823487   16.31699950981154
C        11.71447693039517    6.37001391973892   15.00457157497608
C        10.83732729164823    6.71501432427064   13.99471821469789
H        10.70284763646663    8.09101998558806   11.04911678582775
H        12.01108835761218   10.01143890118854   10.20497436537494
H        11.48971435436873   12.29375064704111   10.97990104514639
H         9.66287454031861   12.66046076366945   12.59817537006871
H         8.36558885627453   10.71329566355004   13.44620285474473
H         8.48759119252251    8.30113805633941   15.81216891829742
H        10.05793722705856    7.68417238180223   17.64256911711718
H        12.12441422339445    6.44637441920810   17.10670806560069
H        12.61544227161734    5.81683438098677   14.77382904082954
H        11.03670280983944    6.42639016226363   12.97129310869700
P         8.23605364597563    4.59125830192875    9.87217672640185
O         9.47176107099812    4.06643603054889    9.24221875378697
C         7.23736097482044    3.19512720441456   10.53382077270634
C         7.03012204027324    5.06105847832929    8.56645795237415
C         6.21954261912506    3.39410719447049   11.45555052015859
C         7.53482519105835    1.90875309980734   10.11000034487049
C         7.30794128418704    4.71956193367849    7.25188710573930
C         5.87470701094635    5.77178927889520    8.86043272566567
C         5.49462213054663    2.31814990141194   11.93140304210008
H         6.00980322893164    4.39622346594789   11.80649845615808
C         6.81405300304039    0.82997553572317   10.58875301573566
H         8.34701832095707    1.77404226802023    9.40924911811264
C         6.43384125072407    5.06921612932575    6.23843677989643
H         8.22469386377630    4.18586963287327    7.04312493663459
C         4.99771492493629    6.11696889191395    7.85059023499600
H         5.67525933364247    6.06045060599648    9.88383559547622
C         5.78884397062930    1.03483057491928   11.49722996561091
H         4.70153599041098    2.47565324201469   12.65050177465326
H         7.04977479518656   -0.17317840476060   10.25719334133929
C         5.27445451977086    5.76447414436186    6.53818312756644
H         6.65442413783195    4.80287517386060    5.21263882030352
H         4.09678507578263    6.67017969965243    8.08136900557221
H         5.22296416986120    0.19339959049615   11.87549913394300
H         4.58789056499374    6.04065006412414    5.74848644137368

