109
CSD_code = PIBZIM | q = 1 | S = 0 | Stoichiometry = C50H52CuN2O2P2(1+) | MND = 4
Cu        3.51959701377151   12.49428496161931    6.73356229320575
P         3.69843248645118   10.69397747606314    8.16755155217399
P         2.63616440146481   12.33840585872042    4.59720294561598
O         7.46105393322918   13.02044905399410    8.35208383212726
O         0.83720139793932   15.83823776956231    6.54284382169486
N         2.05008338324459   13.99878438857585    6.82823080231292
N         5.56715091717437   12.61992473127061    7.25714505972826
C         1.48552042495459   14.24616373108566    8.14378669654981
H         0.89050778266747   13.36855685832075    8.42101757477591
C         6.39838442598488   13.30045472957211    6.27941221298781
H         6.54410171685668   12.62004607576514    5.43423496125985
C        -0.17316483854048   12.50547609689118    4.22319864486474
H         0.01068481557110   13.26729951106213    3.47805442098539
C        -1.47033795502986   12.12211804589648    4.51505790058786
H        -2.29446389952863   12.58790207260976    3.99560977062053
C         4.88813367620734    9.60799089617526    7.31516228931432
C         1.65609429076506   14.91608231461637    6.02646458111999
C         5.71536106054227   14.58235764045794    5.80075644594183
H         5.61015963447371   15.25362279590846    6.65743867585608
H         4.70748146177984   14.31808380990969    5.46315714613199
C         2.44597604566015    9.50975300493919    8.77175452953194
C         0.89018136155639   11.90647662550036    4.89145037071334
C         5.95920138068436    8.98798745924769    7.95056135496466
H         6.12411362426927    9.13350198791730    9.00906957142881
C         3.07419724200881   11.29130483808481    3.16648203276163
C         4.68405074818341    9.40415786749868    5.95406165574840
H         3.84932909145644    9.89371802322495    5.46429054688206
C         5.75600454004032   11.93188144357520    9.60506790194946
C         6.48444832669143   12.20964690390084   10.76317319353941
H         7.36271698316921   12.83171809509369   10.68842341115272
C         6.21957882605265   12.51911135794928    8.35579417355698
C         2.14491375021836   10.62666998108612    2.37422221757427
H         1.08803782362800   10.73215819647376    2.57287531709486
C         4.62182004311214   11.10365635004715    9.68116595423762
C         6.08554298797528   11.70691410482134   11.98664382530180
H         6.65802263551619   11.93024330210947   12.87305864581640
C         0.63898575191972   10.92427905605090    5.84393236824599
H         1.47247984152407   10.46594694906518    6.36475481568437
C         2.60281386054536   14.44750115788663    9.17360839539817
H         2.94693294004576   15.48380157175805    9.13484146291311
H         3.43978888801329   13.80752260119042    8.87001685176798
C         4.22399753736952   10.62534181021754   10.92586572732896
H         3.34626189995819    9.99992154828099   10.99827554959863
C         2.58046763614455    9.83094658194715    1.32890959416148
H         1.85859620385974    9.31766571114974    0.71174762089022
C         7.71366102730941   13.54612311546647    7.05325374432688
H         8.57099178803889   13.02032623202859    6.62749255909053
H         7.95242721728339   14.60820147583461    7.15247339929862
C        -1.71488701843856   11.14396124932406    5.46606843877659
H        -2.72981040451455   10.85149887740389    5.68824378876828
C         5.53752662263914    8.59203140900945    5.23165725098194
H         5.36932689304780    8.43997241191768    4.17572027642800
C         6.60704070159681    7.98086273897593    5.86670982748812
H         7.27872794755021    7.34851566102314    5.30641265500835
C         1.24808754421190   10.05585489052291    9.23018663405394
H         1.12962321495617   11.13227847758195    9.23155064554805
C         4.43614899884418   11.13171651903450    2.91699000523003
H         5.14853851554386   11.63450523460327    3.55828574895022
C         2.01021086250905   15.06519083086332    4.62074846494111
C         2.79963129543040   14.21820531219977    2.51033002149190
H         3.15126295113235   13.39784777450428    1.90107223200711
C         6.45099837013755   15.31076129500983    4.67083765814407
H         7.48804355124181   15.48648691051617    4.97711698283677
C         2.60330488762902    8.12887882318544    8.73659954310602
H         3.52259263978102    7.69714215943285    8.36782100144036
C         2.21275070642129   14.08482604065098   10.61051848694612
H         1.98124662212237   13.01347210575954   10.64034982161034
C         2.67624283662611   15.47936194429141    1.95293482123709
H         2.94090531302429   15.63442010182490    0.91824074604372
C         4.94576844401581   10.92238574005867   12.06839744213972
H         4.62335082201404   10.53174359225798   13.02135533457830
C        -0.65795887718425   10.54176203669193    6.12999401142073
H        -0.84175337233723    9.77816142165150    6.87135655699956
C         0.59719684962464   15.48951846966419    7.90318826326746
H        -0.46994030487811   15.28547291210498    8.02014562116007
H         0.87397424741940   16.33970956219059    8.52977725715586
C         2.46132462797392   13.98672927574217    3.84008489283911
C         3.93476173062556    9.69107545604806    1.07137390531549
H         4.26606389477456    9.06964348929137    0.25352561442260
C         2.20695799989852   16.53535143902645    2.71799903971025
H         2.10261457750975   17.51744850937885    2.28437420754389
C         1.87274995527103   16.32686135585605    4.04295686981475
H         1.50962774354073   17.14125506682318    4.65029566519600
C         5.78224027477033   16.66283304678439    4.42869749352173
H         6.30314166267642   17.20879827461215    3.64679985659516
H         5.79431639015508   17.26901918604798    5.33139222187948
H         4.74833155007206   16.52331993672765    4.11983255581007
C         0.39769609375254    7.85783347406366    9.65202987449523
H        -0.39602946399610    7.21267593863416    9.99634904798768
C         4.86477401710556   10.34231949706833    1.86708914646395
H         5.92068843004285   10.22913296197314    1.67092037058497
C         6.81446741215576    8.17951488027561    7.22248395734461
H         7.64552757046142    7.69948750693227    7.71730326337985
C         1.57909578673553    7.30983992847771    9.17952608069623
H         1.70470710790071    6.23788437371716    9.15610583048136
C         6.45791714164039   14.49647890681835    3.38020597294423
H         5.44093686464591   14.24014762590450    3.08990599117657
H         7.03484418819076   13.58168084229678    3.48986826068225
H         6.90620306746965   15.07620359443605    2.57755134721245
C         0.99462741939125   14.86301880996090   11.10074501627905
H         0.77864323134707   14.59785551170989   12.13259758522448
H         0.11357765792257   14.64339299766380   10.50363178528897
H         1.18377364037837   15.93321185739608   11.06177645336277
C         3.39904184802436   14.34625780093667   11.53588508014296
H         3.62302871115811   15.40996935486730   11.57202198427237
H         4.28429370446599   13.81849855450264   11.19072784357735
H         3.17390761725476   14.01219635824936   12.54516417045183
C         0.23142777362058    9.23422135444719    9.67728774471771
H        -0.69111721897453    9.66260216068657   10.04034291387116

