48
CSD_code = PICBUY | q = 1 | S = 0 | Stoichiometry = C10H27N6NiO4(1+) | MND = 6
Ni        2.47315691365805   19.00974912373607    6.81679477352850
O         3.04458932501816   17.27824714987037    8.04367045789661
O         4.52515466287674   19.96764561432849    6.90435683024442
O         1.96728942316831   19.89915129286895    8.35771919113564
O         0.32146673998021   18.66144090314176    7.65435544613706
N         1.12634285304753   16.18366655021659    8.55043905520754
N         3.14219249237705   15.54353073527797    9.46310362028634
N         5.10165630937277   19.18333368859658    8.94367159347066
N         6.13060231845062   21.04309477149014    8.05893762557699
N         2.74524512816928   18.06630887850082    5.16966082693325
N         1.86208829194866   20.72416236087798    5.60935164841923
C         2.44602652701115   16.38342425465338    8.66335490488471
C         5.20483573399376   20.06470823009866    7.93150892877498
C         0.77680407245689   19.48574186956028    8.47840515580510
C        -0.05368442672070   19.98693994023945    9.63055210685367
C         1.90973334793877   16.86112836516655    5.16862635319795
C         4.15111680436562   17.67633748140556    5.05316322661084
C         2.35711811244225   18.92166916994137    4.02673370307976
C         2.57531734644617   20.38975327115846    4.36671833985609
C         0.41920120400581   20.82061295499532    5.37892833778783
C         2.33616991296116   22.01755861585894    6.10494151858787
H         0.59165083383777   16.93284510368548    8.10784123248944
H         0.64067924056408   15.52693220098382    9.13526214292270
H         4.14522150685108   15.60455575578335    9.47496979661793
H         2.71008075697247   14.75521374291209    9.90980338047107
H         4.31811562538880   18.54469705019104    8.87032319082187
H         5.48839214355562   19.37583953837261    9.85048679768046
H         6.76096168717301   21.07822771448011    8.83888306840958
H         6.30361788871514   21.65267872736023    7.27984236447521
H         0.11133432643147   21.05124132516752    9.77534127933431
H         0.25338786569564   19.47255718408992   10.53971478845347
H        -1.10453154836619   19.78491346157998    9.44369903703226
H         2.27770628518391   16.15339822223982    5.90810061712813
H         0.87869108070461   17.12025599906512    5.41286475250992
H         1.93337567658407   16.37657360793142    4.18626020263158
H         4.30681748160283   17.04834783345105    4.16929903520360
H         4.44692637005222   17.12201731902536    5.94220462787715
H         4.77658253817822   18.56225929222167    4.98185648764242
H         1.30196136256536   18.75340964596589    3.80373613625614
H         2.93562613688273   18.65020426064785    3.13662712286657
H         3.63812641343602   20.56858220214858    4.53952533927896
H         2.23757750603146   21.02688314074043    3.53595494087751
H        -0.00566949308610   19.85526837693692    5.11406234229019
H        -0.07218515674966   21.15584591437966    6.28997974261013
H         0.20254338875776   21.54215317217887    4.58123164624322
H         3.40338969922774   21.95954428300493    6.30164956013627
H         1.83048593361863   22.26090244924406    7.03659126379977
H         2.13741135722204   22.80904725422721    5.37279545966460

