65
CSD_code = PICJAN | q = 1 | S = 0 | Stoichiometry = C30H32OPRu(1+) | MND = 9
Ru       10.58856365488866   13.87286936832946   10.31410278329829
C         9.00085258816614   12.42751070534983    7.39121854565314
C         8.75275020207679   11.28113822567755    8.13635720917257
H         9.14615283776694   11.19852201299797    9.14177986354273
C         8.00278988583556   10.25145931202005    7.59376115092074
H         7.81002966908907    9.36405663665886    8.17681307944564
C         7.49849716410029   10.36218850248703    6.30874236051506
H         6.91074800967029    9.56050996448272    5.88947383590682
C         7.74594622503804   11.50370565910984    5.56097097964748
H         7.35270962292677   11.59089900895938    4.55981593622696
C         8.49232695894681   12.53532693848309    6.09704327208584
H         8.68348909548216   13.42739607197855    5.51692230932055
C        11.34532491518321   13.98543422961954    6.90372705877898
C        11.78651415599590   12.88828780856954    6.16734120678487
H        11.25428406752477   11.94917247830916    6.22642001239655
C        12.89627395668389   13.00535050527514    5.34941985520309
H        13.23107904910153   12.15357509324778    4.77757254978263
C        13.57686527780150   14.20905671971165    5.26390722390122
H        14.44277951108812   14.29628524694297    4.62651934551523
C        13.14433764303755   15.30353648753347    5.99720764719129
H        13.67099508856987   16.24335626088194    5.92832102271526
C        12.03808862512873   15.19288989758787    6.81899167242000
H        11.70042105847603   16.04847366283222    7.38779182637266
C         8.82177776989972   15.20097771989626    7.66128199980250
C         7.76705454223748   15.41778318618667    8.54622503355327
H         7.68608254485560   14.80192654184768    9.43523817670145
C         6.83366341353603   16.40304923663054    8.28779394073737
H         6.01768743393060   16.56651360504646    8.97496223709781
C         6.94713225979936   17.17944378162619    7.14419452886229
H         6.22195023521027   17.95258468928114    6.94357817874480
C         7.98794782387160   16.96018037017527    6.25734790201684
H         8.07229172190897   17.55925258082344    5.36347921953882
C         8.92441611315952   15.97104136007342    6.50705201112401
H         9.73065564168335   15.80471480593911    5.80648808862207
C        12.08010622378121   15.58119080768163   10.31547880081509
H        12.93240234857324   15.80218379237821    9.68863133406960
C        12.13651567644879   14.96451595476725   11.58723650664198
H        13.03254097085150   14.60140307321861   12.06897377244698
C        10.86744289244504   15.07927983174164   12.20632460286353
H        10.63803967631470   14.83038302136957   13.23266735195927
C        10.02008873050813   15.79679436186238   11.31851918996066
H         9.03399647726307   16.17652164133908   11.55057845466701
C        10.77525930063093   16.11670040411179   10.15951104857489
H        10.44343861491038   16.77890389471187    9.37050886808364
C        14.17105697274193   11.36960143710969    8.93600557522071
H        15.20012856158581   11.65696238840706    8.73899244687864
H        13.74690575911469   10.96293239236217    8.02132083690474
H        14.16944928440052   10.59173598969766    9.69438809220162
C        13.37065674450331   12.58783657862494    9.40567393108090
H        13.83411974203963   12.99397846595312   10.30467566153770
H        13.42116122978452   13.34656223050631    8.61959186141102
C        11.93696680902559   12.18248889859640    9.64073656695043
H        11.52026195543490   11.67396901637149    8.76533283054811
C        11.39453479931660   11.81335965347193   10.87705564199644
H        10.59971902460483   11.06260345458837   10.84671290359522
C        12.13964715370620   11.73852004023406   12.18641080645709
H        11.52057955524132   12.12976618611911   12.99823739206891
H        13.07112804728935   12.30217931686625   12.15757353893037
C        12.45874461518230   10.27285715755697   12.49821990700552
H        13.02320324769583   10.20790906424486   13.42418490404977
H        13.05034954693214    9.82917277403455   11.70178786956117
H        11.54549446101880    9.69472302421299   12.61271863080528
C         9.02017114417445   13.03552389135503   10.80632160908281
O         8.05239301872488   12.61175603520532   11.24199498288984
P         9.95071865308029   13.82991654672057    8.05657201717620

