54
CSD_code = PICJES | q = 1 | S = 0 | Stoichiometry = C24H25ClNO2Ru(1+) | MND = 9
C         1.95681464726520    9.29019393905218    0.87318313916593
H         2.45395370417193    8.52113130018064    1.45103563180667
C         1.79858302881986    9.15442761741404   -0.49188361689865
H         2.18585623608376    8.28288758152174   -0.99348877252081
C         1.12082184925316   10.14534034902118   -1.19341626610869
H         0.96845498869678   10.06003174973702   -2.25726581475003
C         0.63605517640241   11.23595990143277   -0.49804784154105
H         0.09605755735761   12.01388342172181   -1.01083198516419
C         0.83661085349088   11.31623851556728    0.87879192043276
C         0.40740383990619   12.41022066590348    1.76088793746011
C        -0.32629331799766   13.52160686510138    1.29984936027212
H        -0.57329212359075   13.57037181574345    0.25681842966150
C        -0.81082609428479   14.50558830001412    2.14941110705423
C        -1.59975629845696   15.63431212321488    1.67534858543690
C        -1.57178538542490   16.06046343500027    0.34238756212358
H        -0.93245425642306   15.57008513571424   -0.37445853003982
C        -2.32993793851385   17.14263219749972   -0.05586524121958
H        -2.29633969662315   17.47013125932236   -1.08355937376808
C        -3.12989735375069   17.81363093556287    0.85825781295799
H        -3.72352585276502   18.65589541300049    0.53815508461150
C        -3.16012409726943   17.40479056046879    2.18297916011777
H        -3.77835424821664   17.92734982125176    2.89625442161797
C        -2.39879693345768   16.32924704999185    2.59220310933747
H        -2.42178111122083   16.00206024459077    3.61974169835564
C         0.64095025486795    7.78052710527181    5.69955616331976
H         0.99192055270293    6.80660275281866    5.36831033712223
H        -0.34239478423780    7.95957145361255    5.25984868566527
H         0.52075733496161    7.77199274875066    6.78163383369792
C         1.57819132212216    8.86642001320590    5.28996141640733
C         2.63512003497423    8.63333398606676    4.39313669000252
H         2.81339116632455    7.62627473624405    4.03011943457128
C         3.53457800463141    9.67330138060812    4.04425922179328
H         4.38265390082306    9.44122201077855    3.40929803299498
C         3.42997291012088   10.95591499645869    4.62161323035612
C         2.34614825586816   11.19033160892562    5.50596010760994
H         2.26077428790407   12.15707434319861    5.99256025162088
C         1.42595090634590   10.18036548999018    5.81605318080608
H         0.63967496985024   10.36923788532284    6.53877682121864
C         4.43563266206826   12.03997137556528    4.31885623927768
H         4.14973097458324   12.93645025084022    4.87936299640028
C         4.40841101597325   12.38381282812210    2.82607675161851
H         4.75900720060525   11.54826053896902    2.22386453629208
H         5.05139251501422   13.23709961658853    2.62905317589150
H         3.39279963586454   12.63981565227137    2.51659096516984
C         5.83877730832210   11.62125137179782    4.76571785536584
H         6.19930034761064   10.77142697241967    4.19181646348697
H         5.84110029595224   11.35398323494649    5.81972642975261
H         6.52974826628618   12.44677424784815    4.62035401362999
Cl       -0.75876115303721    9.83218353253056    3.21393982329265
N         1.49842139240709   10.34030652437278    1.55146271790245
O         0.77812044352409   12.29852412613555    2.98250839511272
O        -0.60529572606316   14.46234373464613    3.44901281174483
H        -0.11183825535326   13.64308262878468    3.68196571602696
Ru        1.45771678563987   10.45816265490976    3.52791618361766

