80
CSD_code = PICPEW | q = 0 | S = 0 | Stoichiometry = C35H36CrN2O4P2 | MND = 6
Cr        2.93965716373682    3.26260108878679    4.78641872514797
P         4.23794172829530    3.40760588597635    2.79767007364702
P         2.29586695185422    1.45892838531583    3.38747660616684
C         3.66518805904881    4.70951629290519    5.66937357482833
O         4.10744274984634    5.57485247383438    6.29432860858659
C         1.44286798136901    4.23616365783892    4.27195285670748
O         0.45308655252653    4.80354079667235    4.09285400289689
C         4.36903924261388    2.27725454941306    5.43407733020766
O         5.25457608675908    1.71698357807237    5.92343109913609
C         1.94176060368065    2.86269891640478    6.27926575416552
O         1.34135051242320    2.67077953138669    7.24884137352207
C         3.91680987802237    4.45418937469948    1.33293777372293
C         4.64244826693044    4.31307619665138    0.15271743552698
C         4.36759230718946    5.13626676896995   -0.92335567978031
C         3.38451409391028    6.10970884023162   -0.82768936356924
C         2.67759319214779    6.26814697920055    0.35282269480872
C         2.94463346212761    5.44410328853467    1.43240452953261
H         5.41151512102129    3.55828692572325    0.09216492616345
H         4.92579617675009    5.02318438093340   -1.84170523017651
H         3.17609483893017    6.75072467533182   -1.67166437696095
H         1.92142473226196    7.03484301515553    0.43439489193670
H         2.40635870447720    5.56470737209111    2.36451282233298
C         6.05994174324572    3.49149109700791    2.79997367834110
C         6.90022990622801    2.40769717640199    3.02464912880267
C         8.26806367995726    2.59488900950593    3.11837175555619
C         8.80946886902470    3.86480827831541    3.01153796977440
C         7.97609377552930    4.95516299528131    2.81809296854877
C         6.61123226639185    4.77047999426581    2.71904848534327
H         6.50107738390896    1.40994800352605    3.13453281699779
H         8.91402758908649    1.74458011424850    3.28155506718596
H         9.87725578848584    4.00629160855203    3.09007218642355
H         8.39208189652830    5.94957698986968    2.75127801946164
H         5.95518316528869    5.62087955545520    2.58060701599780
C         0.87137503462824    1.52885891214597    2.25823970723535
C        -0.21815232488211    0.67700239131171    2.42141503711498
C        -1.34613530836796    0.83790365046133    1.63713593850732
C        -1.40476606837408    1.85525662041392    0.69901154816221
C        -0.33705807348776    2.72768517430636    0.55721319970235
C         0.78955900420650    2.57364187475554    1.34130340232817
H        -0.18125665047512   -0.10748272709739    3.16516205277209
H        -2.18641779175436    0.17121230723965    1.76451353167572
H        -2.28755023343493    1.97785708406164    0.08943698028829
H        -0.38707935382703    3.53588044046568   -0.15785563182971
H         1.60998310955438    3.27434188978600    1.25536512368826
C         2.36988382590123   -0.31639183201248    3.80896962954170
C         2.61229235995337   -0.63732670543114    5.14097942660126
C         2.73062914966955   -1.96041222037793    5.52941261823637
C         2.60942086880262   -2.96983827691536    4.58898341495276
C         2.35979387083922   -2.65663924849228    3.26145509944608
C         2.23638498601963   -1.33686211748247    2.86949009809686
H         2.69870643637983    0.16248505750020    5.86676265056132
H         2.91614703889006   -2.20344977793067    6.56490729153063
H         2.70293821249231   -4.00298068890204    4.88902254538137
H         2.25724595103086   -3.44565015136121    2.53042124917763
H         2.01960138167985   -1.09623283708565    1.83753506666197
N         5.15283815288510    1.19082312059007    0.33511471212655
H         5.65031797195718    0.46739450810195    0.84828481947763
N         9.00998154290087    1.68157939324972   -1.14807641645054
C         3.80058055389294    1.65563239270221    2.27727583889946
H         4.53846800994032    1.02017483264251    2.79383393040246
C         3.78551789999129    1.27373129278047    0.80482195249139
H         3.27399668029891    2.03466897349144    0.20699477697907
H         3.23004403186246    0.32567159151115    0.66895377514231
C         5.27929082711547    0.92713482433716   -1.08671751084846
H         4.70608584985871    0.03323615152049   -1.39238298065609
H         4.86149921103435    1.78613287114202   -1.62252022965959
C         6.74494872606696    0.73668201858434   -1.46936071892464
H         7.15617998419941   -0.12047422583337   -0.93229295669625
H         6.79553743524585    0.52383134274847   -2.53770463832449
C         7.58553214188592    1.96553012658185   -1.12082403196015
H         7.33614181830171    2.26466812903405   -0.09993803378829
H         7.32169266034544    2.79930022996021   -1.79779577150345
C         9.76309899930764    2.73525313841971   -0.49925526511853
H         9.40798884570165    2.85497320438126    0.52324009117836
H         9.67283318482671    3.70432740205489   -1.01583139622079
H        10.81507365263308    2.45430419208342   -0.47340021448466
C         9.50377239574314    1.45054841562680   -2.48981084785703
H         9.00548366860251    0.58512172195851   -2.92048704033456
H        10.57116062165928    1.24061691766495   -2.44244711782066
H         9.34687523871049    2.31641081875332   -3.15360422687340

