71
CSD_code = PICPID | q = 0 | S = 0 | Stoichiometry = C34H30N6Ni | MND = 4
Ni        3.06117699185412    5.85638515237617    6.21277829519959
C         2.87740161823923    8.59347502928543    6.15788211077633
N         3.37621577927723    4.32534932928608    5.22194339820551
N         2.82440642517790    7.56499201305091    6.99044712422559
N         3.01233052099855    6.79024628092835    4.66907213046155
C         2.66615683540197    6.34632415103067    8.90053891442000
N         3.29628923799466    4.15649567899832    3.92606726663774
N         2.86783210000513    5.34214609179687    8.09977520205866
C         3.09120565776057    6.47417726586330    3.36807210685931
N         2.66308689441480    7.59228450648630    8.35809551743593
C         3.17425577584473    5.08438456270408    3.01852760079903
C         3.05846774586048    8.72527280896427    3.52893460153350
H         3.06922257807528    9.77618976211726    3.30659609785219
C         2.97205274115214    8.15208278348233    4.81391338320669
C         4.39934170649270    3.04218835461305    7.01056445043516
H         4.95100722568951    3.93053623715109    7.29659996993429
C         3.54038905368542    3.11245113754184    5.91020339287043
C         2.43034056843359    6.19031841515595   10.37178580518452
H         1.68973133299328    6.90177192272964   10.73042259604513
H         3.35570632068121    6.35355300225697   10.92350088870695
H         2.08536585184494    5.18033892906343   10.58200638751003
C         2.24055451934768    8.75170463925658    9.05501558199984
C         2.86073085771214   12.74023022290621    7.16212921433372
C         2.87990713451221   10.02021278394766    6.50455501647232
C         2.34964949568037    4.79214489823460   -0.63950828261881
H         1.74069695578893    5.29598326762248   -1.37794586021843
C         3.82516063644850   11.88932058055960    7.68732515047602
H         4.57361539975446   12.28298684806901    8.36023924026060
C         3.09480430853439    3.68065126009240   -1.01611265730232
C         2.36757200828135    5.25544589403306    0.66118925354953
H         1.75335008654102    6.09919719415248    0.93717779604566
C         3.84980005365846    3.03454700271067   -0.04528658385050
H         4.42816652860743    2.16142850739913   -0.31482359359285
C         3.89449307958919    0.71199810039129    7.28444047219663
H         4.02481264701342   -0.21612745365855    7.82112282681305
C         1.06473863548426    9.38877476791352    8.67344733062999
H         0.46988375766683    8.97652815738797    7.87191377795440
C         3.14336523980052    4.62034494791380    1.62891144321357
C         3.00500974268223    9.26336030246026   10.09659615824784
H         3.92093807069688    8.76934708073219   10.38373565128884
C         3.83966685050870   10.54744920410757    7.36408221728858
H         4.60686195432966    9.90303906249061    7.76919371652436
C         3.07348944001249    0.76400356416916    6.16831756933671
H         2.56438734920714   -0.12846102421102    5.83384512502734
C         3.87370401759705    3.49313701749783    1.25674550818350
H         4.46150054617175    2.98572039933085    2.00652646222758
C         3.12992825955934    7.68368971791465    2.62785399921870
H         3.22826755181152    7.76584262983805    1.56317066982023
C         1.93774072816054   10.87706184172132    5.94253739071635
H         1.20140933534421   10.47902524405588    5.25993820805136
C         1.43855566806795   11.06273474374379   10.34982109704230
H         1.13131735290383   11.96955498113559   10.84774225516450
C         2.89746720096116    1.94802144438452    5.48128846997011
H         2.26278763285751    1.99790708342078    4.60976314037956
C         1.92702654444306   12.21677687125851    6.27580690416594
H         1.18029314857836   12.86831994035408    5.84445527346330
C         0.67215622458090   10.54571382864306    9.31877836947900
H        -0.23589797951338   11.04384895883122    9.01562122485208
C         4.56185072304458    1.85449248574110    7.69667946863056
H         5.22731951806592    1.81256777779558    8.54792505238119
C         2.59793681851292   10.41589485040955   10.74268017988446
H         3.19518087977402   10.81576029323644   11.54825489021820
C         3.08205630958426    3.20403067646791   -2.43761409184365
H         2.06540948704548    3.17898615755955   -2.82654304304665
H         3.51354284075380    2.20921924509575   -2.51849745654462
H         3.66222588088834    3.88060057957743   -3.06625039363974
C         2.84518612959027   14.19494190682070    7.51830238831908
H         3.29321070330877   14.35977359953494    8.49546020290654
H         1.82840726514196   14.58140727638705    7.52441000974334
H         3.41613507643325   14.76492429052264    6.78442734696123
H         2.86474442259154    4.43417293516355    8.55562866887065

