30
CSD_code = PICQUO | q = 0 | S = 0 | Stoichiometry = C14H14CrO | MND = 11
C        -0.28313744358094    0.67705621057440    3.32660891116301
H         0.04979184444790    0.52666686080621    2.31343365181387
C        -1.41221362798949    1.40742725820831    3.69914957846491
H        -2.12253535281529    1.87273392755947    3.03150941765900
C        -1.59003452362642    1.25718448209312    5.11559304161809
H        -2.45381054105760    1.59287312648820    5.67056170318777
C        -0.56772391785704    0.43663181724287    5.59366533668186
H        -0.48872895007323    0.07157924137102    6.60386199048067
C         0.26564952243589    0.06612430400799    4.49483075383650
C         1.67614930010666   -0.46728908008477    4.61541357843012
C         2.20654150534345    0.93283243601906    4.83099255612927
C         2.43659049329361    1.89083723183940    3.79737766043938
H         2.62232016123177    1.67411375448350    2.75886297743462
C         2.50954937393616    3.15754858664000    4.37786892232280
H         2.80528148422727    4.07180224208550    3.88444381102029
C         2.33078844679566    3.00722311073989    5.79432409387013
H         2.47244807910380    3.79169918698868    6.52322719463569
C         2.15058635267090    1.65020199025259    6.06442571235245
H         2.08131401267919    1.21875476271121    7.04882899901093
C         1.89118060882377   -1.40591411688808    5.80223534367758
H         1.36488962638503   -2.34397099202088    5.63289365410042
H         1.53076125790193   -0.97969282050872    6.73373968257640
H         2.95247534877148   -1.62117548386799    5.91620830089734
C         2.19953640038214   -1.14479353939939    3.34936595162805
H         3.26198242257185   -1.35808926096468    3.45602955334203
H         2.06586491084301   -0.52602919749919    2.46703036270083
H         1.67338895089518   -2.08419395646725    3.18720882510431
C        -0.28708012818309    3.85952876434168    4.82795778022685
Cr        0.46755945957777    2.18955781576091    4.74553574598447
O        -0.75928507724131    4.91577133748696    4.88051490921035

