48
CSD_code = PICQOJ | q = 1 | S = 0 | Stoichiometry = C19H17N6O5Zn(1+) | MND = 6
Zn       10.61426389754361   -0.23446008831261    4.26704455605677
O        10.07680195040579    1.85170013540915    4.06381791544980
O         8.77078310082076    0.36075894632970    4.81268422713890
O         8.10546719516802    2.37968986935868    4.68628726108225
O         9.47974135484528   -2.20151592227740    4.90820850100718
O        12.08240917290661   -2.17907422039275    4.25536628226452
N        10.32280830877674   -0.46928950160430    2.22604115277145
N         8.96253445068172    1.56944678054976    4.52257323315875
N        11.63341304789172    0.22648191631888    5.99509290537154
N        12.36412921056900    0.45619654135432    3.52099399615383
C         9.35537675471979   -0.81102036928165    1.32264366678878
C         8.06920197906069   -1.31657749909359    1.50480958377539
H         7.67239266408012   -1.47629802090022    2.49457282420897
C         7.31605472911465   -1.55349744582271    0.37697718358968
H         6.31301595150171   -1.93659211663283    0.47983118725483
C         7.81144867249583   -1.30186662564006   -0.90864859283693
H         7.18068447110641   -1.50610291594323   -1.75921353254026
C         9.07396654824847   -0.78656290225933   -1.11211747523084
H         9.44740877220105   -0.57716133468655   -2.10155132461922
C         9.83765905437859   -0.53906211604855    0.02010012970126
N        11.09631146139992   -0.02243594518408    0.19720206645261
H        11.70776589212889    0.30336562821359   -0.53392552700844
C        11.33942969562198    0.01173248532883    1.52733310745577
C        12.50314226712956    0.54518799451652    2.20957155007569
C        13.63485819794903    1.14241481704764    1.65509477953621
H        13.77072208681583    1.22465859452278    0.58887775253078
C        14.59132528202593    1.64555402438300    2.52695696965004
H        15.47894134559651    2.11549532022962    2.13155158984693
C        13.24836160943854    0.95232444662765    4.36911666476094
C        12.80115152230025    0.79539284691314    5.73929707679237
N        13.42039904673175    1.20163567253003    6.87140321636072
H        14.30785042303286    1.67382264273004    6.93494707249421
C        12.60084657568712    0.88780310791881    7.92593093863047
C        12.71708981825592    1.07533432150791    9.29634021857917
H        13.58325776382087    1.54856031946492    9.73016495542185
C        10.53635848470414    0.02719649287064    9.51211891235529
H         9.74067975518216   -0.29076301900457   10.16728864669891
C        10.41428784945123   -0.16586317913797    8.15474849705619
H         9.53895821826635   -0.61768988687023    7.71774817156243
C        11.46566793462035    0.26876621084334    7.34989837610864
C        14.40990473701921    1.56728991187146    3.90086339755266
H        15.14531087740914    1.97919986610763    4.57280357443238
C        11.66777683392312    0.63315014195780   10.07372623324530
H        11.71311030089342    0.76099082337753   11.14370408180459
H         8.92324235027281   -2.48582970310180    4.17690526855600
H        11.78673461929318   -2.84161062351235    3.62553921643510
H         8.87472308159052   -1.83120954752878    5.55987428587263
H        11.93833068292636   -2.56586687505187    5.12400522619454

