71
CSD_code = PICSUQ | q = 0 | S = 0 | Stoichiometry = C33H34FeO3 | MND = 7
C        11.15458662435654   14.63412799056029    2.85610278430423
H        12.18979971818176   14.44108622540830    2.58373877659139
H        11.15629403511691   15.15548216414232    3.80986670393637
H        10.71793828439807   15.28216824804194    2.09969481373618
C        10.62103061926331   12.53362733811885    1.64234162973928
H        10.12559762648876   13.03227077101420    0.81089438071260
H        10.24702943678657   11.51583182185459    1.70877145850700
H        11.68587199234493   12.47982485180110    1.42831155079735
C        10.93878072669978   12.49645219601620    4.12651686839083
H        12.00456400549715   12.32281700596280    3.99668233398883
H        10.43902207563693   11.53264262564320    4.19777091736275
H        10.78883893671534   13.03343459352678    5.06117216321423
C        10.38903519160522   13.31097457857846    2.94320590227577
C         8.90555240458358   13.52064035401268    3.21844634349491
C         7.96472740282019   12.48597173100936    2.99997523380733
H         8.26331912566040   11.56651676146912    2.51359777000370
C         6.64154220634229   12.65441517999743    3.49312970069334
C         5.60378393598589   11.65818953442344    3.22349968403580
C         5.67255184497693   10.87046813532412    2.07081796975924
H         6.46610007063342   11.04765947054491    1.35983622229567
C         4.73955802323113    9.89368283713200    1.80010738898270
H         4.81936049033055    9.30348141407099    0.89948374416260
C         3.68971404814868    9.68658320856613    2.68328580490852
H         2.94457434325033    8.93304733236918    2.47557770386637
C         3.58930272207401   10.46240908820718    3.81753584728799
H         2.74588838480804   10.31301668741689    4.47349979172346
C         4.52778687967176   11.45332092045497    4.12309699081443
C         4.37241105122164   12.27986380665492    5.31134363301578
C         3.55929187223570   11.99380970460910    6.34985688424589
H         3.01690760536339   11.06162237336551    6.35850921676706
C         3.39987224589164   12.85563742821459    7.49148371772985
C         4.17784728881154   13.96416380027408    7.59780777294116
H         4.13490688017486   14.59848831674231    8.46919126900825
C         5.14901295340907   14.30368822173211    6.61590146532953
C         6.06684204091096   15.29520945532014    6.77495300898486
H         6.04236143980387   15.92120748540565    7.65580378009401
C         7.09093982161166   15.52712627097188    5.80462324458038
H         7.67403969040648   16.43510656067910    5.86946433022300
C         7.35525860157155   14.60271323707260    4.85103504037555
C         8.37972445344545   14.70142740938282    3.84257741828212
H         9.03935815995593   15.55570220230951    3.95293605417359
C         6.56364985787822   13.31789511054609    4.85412631937276
C         7.22643771354953   12.35299101038884    5.86907064309771
H         8.28629773407274   12.25196851019032    5.64932118976360
H         6.76490399200412   11.36923037043089    5.82165510078036
H         7.11345263077500   12.73986469184964    6.87906228151893
C         5.12163911223268   13.58334838286808    5.28839120185010
C         4.34712561890783   14.50521996777916    4.32433782258580
H         4.31340988622788   14.08221170080946    3.32248667879372
H         4.81237113622768   15.48624699170312    4.28854802014179
H         3.32725693214749   14.62136279613521    4.68665687370609
C         2.38465007276622   12.44448870797833    8.54354580139723
C         2.27627623508944   13.46051059751264    9.68396429536067
H         3.21540181293618   13.54321439678273   10.22596485410159
H         1.51127404175954   13.13680139997548   10.38684563714571
H         1.99469688420465   14.44103269490070    9.30723481614878
C         2.79714537267516   11.09341280000642    9.14623821044394
H         2.81376010982536   10.30695568536977    8.39677742263768
H         2.09546301181122   10.80325353262444    9.92539793528552
H         3.79017956942733   11.16634551244060    9.58511751588336
C         1.00235656858723   12.32307745042128    7.88506525206971
H         0.70936798698207   13.27663403884117    7.45043289237609
H         0.25881824471620   12.03949016732276    8.62698193817033
H         0.99659020175273   11.57485591467098    7.09745490663382
C         8.38867237653882   15.16348479946134    0.76528173475922
C         6.71000196354945   13.53082541860083    0.41853399858216
C         6.09857312280350   15.59448378400316    2.04145280324504
Fe        7.34462891949850   14.28461738000408    1.87691117262420
O         8.95057083137686   15.77405719972205   -0.03083678978953
O         6.28779944817012   13.14782919772832   -0.57929036134590
O         5.42460335108166   16.50448045052941    1.86172251751605

