77
CSD_code = PICTAZ | q = -1 | S = 0 | Stoichiometry = C35H35N5NiP(1-) | MND = 4
Ni       -1.47275803265949    8.50403798476006   15.09799947753169
P        -3.60484677203410    9.08173557786202   14.31092624304677
N        -0.22506481953081    7.84957037082337   13.76753387764303
N        -0.78605050040670   10.23177044017183   14.73142489842203
N        -0.34501183780867   10.76509431948728   13.61086370029805
N        -1.88744917307952    6.71641156936318   15.67426044158114
N        -1.22801904427506    5.61451867524393   15.35640537814634
C         0.30459131151183    8.59166190367922   12.75547820915654
C         1.08601970538638    7.75316062628902   11.94931937066798
H         1.66366059741379    8.05216988497164   11.09294391323439
C         0.19843184191298    6.57108369507134   13.62970603173433
C         0.56189937777305   10.75048897493422   11.46025898707392
C         0.14847517393453   10.02311425622374   12.66024142084943
C        -2.99487625039290    6.47842837630229   16.45086920283345
C         1.01862481728382    6.48096456136394   12.49768519625484
H         1.47544569497268    5.58846581988577   12.10925018833996
C        -3.66635469333110    7.52610764738805   17.10764763704238
H        -3.27469196497632    8.53235624614610   17.04663351096859
C        -1.32689188465934   11.05159961084383   15.66801344282078
C        -0.26275731685399    5.51425520312179   14.49934159203394
C         0.37049762016556    4.19193161238301   14.43665975676737
C         1.75051272503095    4.05190778592490   14.29259044378352
H         2.36793578741008    4.93549871827759   14.23142982321517
C        -1.57682595724251   10.47103446552100   16.93001945282526
H        -1.21970293056027    9.44674818910835   17.09935711420542
C         2.33425410421089    2.80108877900755   14.25670973130191
H         3.40813967073246    2.71480317522069   14.14697206838377
C         0.38069721376929   10.22550459782299   10.18079909654816
H        -0.07540665989019    9.25346599988031   10.06639787307987
C         1.56768599136297    1.64748903878199   14.36968494432021
C        -0.39372095410351    3.03278093866774   14.56643740887443
H        -1.46200408322662    3.12702386591907   14.69040434718914
C         1.10325961284288   12.03254172703165   11.57067707349963
H         1.23055217811410   12.45437949819524   12.55637688213096
C        -3.51447474939798    5.17921643233914   16.62148281076448
H        -3.00057437149329    4.35746852670682   16.14730573235977
C        -2.18162738857878   11.19567902427175   17.93077685105334
H        -2.37818588576367   10.73589008820501   18.89114244416173
C        -4.80144531103537    7.29062441208571   17.85230527155815
H        -5.29528780135936    8.11979982443803   18.34523068854931
C         0.19459284232328    1.78466436338847   14.53120470599471
H        -0.41974194364892    0.89815630362415   14.62842439921927
C        -1.64623667574200   12.40844066855688   15.47752385366673
H        -1.42738492476652   12.86412925682828   14.52289740925941
C        -4.81604277794045   10.26912743460669   15.03714633755123
H        -5.22835757470031    9.84347707395583   15.94930051649562
H        -5.62329706921477   10.47694689771274   14.33578133250434
H        -4.30129477341347   11.19535159644014   15.28639693008811
C         1.31579875951878   12.21017761265555    9.17689850299016
C         1.47519900572797   12.74567710970740   10.45004982258189
H         1.90265520354139   13.73458518943831   10.55922396673859
C         0.75569416679211   10.94407872654535    9.06247570770202
H         0.60778239232831   10.51666954495593    8.07858537208113
C        -4.64556255460361    4.95697775911656   17.37254011447655
H        -5.02452288128740    3.94761923263412   17.47866262788160
C        -4.75691754421552    7.72543420810078   13.83727058372535
H        -4.19888831748654    6.98735940142480   13.26400130232126
H        -5.58454409514498    8.10651908762435   13.23902580565915
H        -5.14075185853856    7.24484590345662   14.73436109899200
C        -3.39630570396978    9.86356400425069   12.65727187484019
H        -2.86951385236927   10.80915875814101   12.77155235266080
H        -4.35855162232858   10.03410758425294   12.17349321729503
H        -2.78268553741982    9.20847939939997   12.04050722433198
C        -5.31128222478311    6.00795791065805   17.98837949827366
H        -6.20467921953096    5.82880699566682   18.57133387944689
C        -2.52278519887360   12.52617035850631   17.71879678549412
H        -2.99335907765163   13.09896088213884   18.50608134556667
C        -2.23501107056529   13.12300500462068   16.49703160904414
H        -2.48604609314578   14.16559442716107   16.34236730858028
C         1.70739736377018   12.99455932470005    7.95750978218510
H         0.87880877471435   13.62693965364345    7.63241615110911
H         1.96589762151081   12.33025253623259    7.13489250207000
H         2.55837346488610   13.64001223409205    8.16851901346087
C         2.20712656272300    0.29024246927807   14.30196970123777
H         2.30619043412071   -0.03019375786933   13.26294271132203
H         1.60463171845134   -0.44921999865815   14.82636367643184
H         3.20265923978503    0.30859239926525   14.74253844248114

