123
CSD_code = PICWII | q = 0 | S = 0 | Stoichiometry = C44H73F3P2Ru | MND = 6
Ru        2.58305396637664    5.90225261056828    8.56465467902830
P         2.40599691528215    3.49338807710530    8.39436683211955
F         0.90805244216922    5.90227455848682    7.59675984842309
F         1.43669549299840    5.90227238315218   10.23305971313017
F         3.50131908808631    5.90200408857112    6.77055524626368
C         4.06951810880540    5.90234048129249    9.53307767264982
C         5.14947437820556    5.90226320835517   10.41301156557506
C         4.90813355590991    5.90215499210389   11.80208888031041
H         3.88506625278405    5.90207859018864   12.14662494961562
C         5.95759498444827    5.90216881144984   12.68989311449647
H         5.75965304343749    5.90209474473493   13.75248384103010
C         7.27963685891134    5.90229575709457   12.24380822517743
C         7.52081136200561    5.90239110529945   10.87286232640042
H         8.53997817592173    5.90249849321335   10.51253668811117
C         6.48343770342268    5.90237069861977    9.96641757158360
H         6.68192413138817    5.90245709848878    8.90535580478691
C         8.40405978253836    5.90232482781895   13.23036619790040
H         9.36754641586396    5.90250957792502   12.72724556720651
H         8.34491222767300    5.02319937272728   13.87132511714808
H         8.34468409210332    6.78127738766743   13.87154036117660
C         1.44389896188492    2.96904957909404    6.88896154177676
H         0.56645943301660    3.62976797797779    6.93992439796914
C         2.18029775883843    3.30393841702823    5.59158560208211
H         2.56254929413157    4.32287632201055    5.63387116103062
H         3.02342628396185    2.62265267627890    5.45542308785818
C         1.23023397758490    3.15690824075534    4.40661564358180
H         0.40491930085658    3.86308751811224    4.51703471414059
H         1.75519310362980    3.39876451789350    3.47999173868973
C         0.68061045039483    1.73522245528821    4.33846961310614
H        -0.02537405815443    1.64396146610480    3.51002512392396
H         1.50160759600816    1.03730074968660    4.15391021810745
C        -0.00842889038519    1.36807128449059    5.64925083472036
H        -0.37223944752259    0.33847490700397    5.60387913325514
H        -0.87172577901747    2.02084244956717    5.79814714944417
C         0.95064271049871    1.52174391366918    6.83087051534656
H         1.79059080444649    0.83992692111680    6.69269121708180
H         0.43189221070212    1.23478838852352    7.74579747809322
C         4.08115943173204    2.67112195207144    8.45098140014728
H         4.40814657468924    2.87711562480064    9.48094800596982
C         4.10996734275998    1.16042885749013    8.23204331010573
H         3.89119330259760    0.93501891735450    7.18737986521062
H         3.36849655719174    0.65781897780761    8.85548571156987
C         5.50286035721677    0.62620982590564    8.56571696639965
H         5.72107206740480    0.81768066152335    9.61922155328222
H         5.53033241615330   -0.45483623181743    8.41020711839393
C         6.56005716417180    1.30264162525075    7.69781878784007
H         6.38320769195923    1.04803258474730    6.65023731437619
H         7.55209582270942    0.93365071371650    7.96720536898314
C         6.50156362264184    2.81898633759205    7.86374483352540
H         6.75207779338570    3.08224385871366    8.89487762779946
H         7.23701706352910    3.29074965811585    7.20909576076820
C         5.10451898922513    3.33592391854713    7.53127241271119
H         4.87901142036699    3.11578603237161    6.48830136412771
H         5.05963430762856    4.41901408726265    7.65638965250470
C         1.49695645334059    2.67464015290298    9.79579152637628
H         1.51723107628001    1.58999922582600    9.62514631309025
C         0.04539925548861    3.16137644744886    9.82355293212503
H        -0.46188087820709    2.91872544933142    8.88842822035394
H         0.04221994795862    4.24582640266637    9.93337875742794
C        -0.71751215246217    2.53371274565608   10.98617062790699
H        -1.74516334178889    2.90277122478425   10.99002805430139
H        -0.75305695403701    1.44699646329153   10.86058831628116
C        -0.03650430876057    2.86940927490733   12.30722660473177
H        -0.58680740510992    2.42741978998496   13.14108510941337
H        -0.02756441547059    3.95257539585681   12.43840597475896
C         1.39816460076186    2.35610663341463   12.29168449804161
H         1.89444050630517    2.59857700065763   13.23413854121144
H         1.39404217131587    1.26702490178933   12.18740515761368
C         2.17448752392696    2.97768056342013   11.13322153776043
H         3.19617010804310    2.59128764914515   11.14431782682764
H         2.21627954746757    4.05979702779343   11.26257792822759
P         2.40602336714891    8.31111198771650    8.39437359661579
C         1.44393475716895    8.83549435408319    6.88896821741030
H         0.56646019843349    8.17482287198180    6.93993082814834
C         2.18028901447548    8.50059121271826    5.59157042096769
H         2.56247931106804    7.48163399854216    5.63381899871156
H         3.02345493210083    9.18182842482191    5.45540079405962
C         1.23021997812288    8.64768699169748    4.40661592576768
H         0.40485696433894    7.94156488335704    4.51704137950410
H         1.75515357969502    8.40579986752456    3.47998591714446
C         0.68070409099646   10.06941309877209    4.33848644888076
H        -0.02527237177406   10.16073766456120    3.51004150285192
H         1.50175529198469   10.76727517128191    4.15393943916546
C        -0.00829905688524   10.43658420849094    5.64928139132200
H        -0.37202821007748   11.46620989093226    5.60392809979352
H        -0.87164783487847    9.78388023504739    5.79816490696783
C         0.95075682967262   10.28282966489450    6.83090389625528
H         1.79073862682027   10.96460178242485    6.69272336080442
H         0.43203296958196   10.56980483673234    7.74584007967285
C         4.08119557484649    9.13336135871232    8.45098953324350
H         4.40821384062157    8.92737531902314    9.48094813642598
C         4.10996408425495   10.64405302548588    8.23203508216000
H         3.89106783944730   10.86944644322870    7.18739493438720
H         3.36855662968506   11.14665502064167    8.85556059971571
C         5.50288836555546   11.17830402047901    8.56551848739370
H         5.72125418209222   10.98685071087610    9.61899411591514
H         5.53030599047699   12.25934816385805    8.40999149150277
C         6.55998083703472   10.50189410311029    7.69747858749622
H         6.38293495272874   10.75643025092549    6.64991213641612
H         7.55204944492147   10.87094554389530    7.96667091725965
C         6.50156707146987    8.98556227228585    7.86351356655527
H         6.75220884467149    8.72238582276725    8.89463575393901
H         7.23695830363692    8.51377956506127    7.20880918830423
C         5.10450769089686    8.46855192398110    7.53123140147864
H         4.87888240516958    8.68859829508187    6.48826759213868
H         5.05968945055494    7.38547284745510    7.65643069799346
C         1.49696197231162    9.12982404827746    9.79580377211827
H         1.51727841497090   10.21447344620825    9.62521495667755
C         0.04539076896869    8.64312471662643    9.82349011723594
H        -0.46184257359409    8.88583362335951    8.88835559152585
H         0.04217503231647    7.55866770216774    9.93327261865306
C        -0.71754410963030    9.27077508824859   10.98609945536045
H        -1.74521410516804    8.90176822972068   10.98989544993835
H        -0.75303082867975   10.35749882807695   10.86056240411456
C        -0.03661285098981    8.93498266413813   12.30716946271350
H        -0.58693188651102    9.37695597539577   13.14102675434421
H        -0.02772954585361    7.85180896415772   12.43829261868372
C         1.39808114613970    9.44822228387294   12.29170885797531
H         1.89430324992279    9.20566766799217   13.23416890603835
H         1.39401264565332   10.53731098693308   12.18750121806349
C         2.17443231394277    8.82668506354931   11.13324274645361
H         3.19612755985373    9.21304579284785   11.14439163166444
H         2.21618850057364    7.74456068611898   11.26254765952450

