72
CSD_code = PIDCEN | q = 0 | S = 0 | Stoichiometry = C33H31N3NiP2S2 | MND = 4
Ni        5.39872687624799    6.73950057382927    6.15717775445530
S         5.40435166970930    4.61510114592057    5.94126206653121
S         6.55559793809844    6.63245058741502    7.94992040333416
P         5.27579143607502    8.91795593505882    6.09402713170849
P         4.25293346196168    7.13229710001052    4.33809649708570
N         4.55568467233180    8.81623448949171    4.53812661480209
N         8.21066464484414    4.29496284581792   10.25295905466836
N         6.59267999231623    1.49964809042999    7.48635819654255
C         6.70076984039758   10.01468677146201    5.82537232294186
C         7.88296838090518    9.37361931046831    5.46593485288514
H         7.89980908359592    8.28685412180069    5.44090137819247
C         9.01249241501745   10.11145852126002    5.16694376715888
H         9.92960737285918    9.61307022605891    4.89055858319808
C         8.96339573710529   11.49509629289777    5.23344943244557
H         9.84414579120572   12.07680348685680    5.00541386730952
C         7.79143883289742   12.13599443522135    5.60263787328114
H         7.76107691273502   13.21418282921682    5.66032512922866
C         6.65712775948399   11.40141468776481    5.89976309448084
H         5.74671182587767   11.90228216315648    6.19902292059747
C         4.15094188230886    9.86846138231520    7.15242238836001
C         4.67681983562334   10.50487878005546    8.27481695997316
H         5.74427083809685   10.48208653710625    8.44767802644626
C         3.83450184667101   11.14855518612518    9.16140440483893
H         4.24443666251746   11.64526619387476   10.02798195430127
C         2.46523136969081   11.14701529794330    8.94444149471986
H         1.80867876784113   11.64991470293125    9.63843282920651
C         1.93635366621923   10.48409563151892    7.84883552411638
H         0.86809704056658   10.46391224231116    7.69072362101873
C         2.77371916011640    9.83532666429703    6.95993382537878
H         2.35801518497294    9.29420735007765    6.12078735271382
C         2.43999261224933    7.02519626035719    4.29234485308388
C         1.82389707995964    6.56625846152499    5.45276159891153
H         2.44650546533696    6.22046964787241    6.27365299292266
C         0.44482434865602    6.55013215772258    5.54850318189693
H        -0.03190548658403    6.18839442701942    6.44701261117514
C        -0.32138049738969    7.00149217116567    4.48530754566698
H        -1.39885598541105    6.99176495768022    4.55535188759465
C         0.28899454157558    7.46311045352353    3.32923527525573
H        -0.31327164670627    7.81355933829109    2.50384359534283
C         1.66912867170593    7.47800180608769    3.22628927552152
H         2.14510155111030    7.82856634086274    2.32111359878688
C         4.83847634938900    6.68350481411213    2.68137552705498
C         4.12526644464093    5.82751175030679    1.84974425842599
H         3.14066723576925    5.48825793028450    2.13869514735556
C         4.68585363474162    5.40711551474146    0.65607792074522
H         4.12829667053946    4.75061924729401    0.00478843062171
C         5.96231618400491    5.81252364305895    0.30302653767017
H         6.39665785382896    5.47665461477516   -0.62656751167471
C         6.69262035716067    6.63118427000126    1.15170860248013
H         7.69853545567740    6.92386397169300    0.88840623856056
C         6.13707380295100    7.05645716652973    2.34237459810820
H         6.69861572545065    7.68300183577413    3.02366479683275
C         3.89885696944129    9.91594935357763    3.84570399236244
H         4.07468096167378   10.82168263963371    4.43308035362960
H         2.81526242722791    9.74218301513332    3.81493593950564
C         4.40094659834613   10.10779940686047    2.41415948059684
H         3.71206721800341   10.78004970828239    1.89745638951830
H         4.36602998993655    9.14041745337065    1.90869756424984
C         5.82124454741463   10.67567173613340    2.32326503173295
H         6.44358107044390   10.16989115487431    3.06909709882964
C         5.83586876955302   12.17503067509991    2.60912563984401
H         5.26867008768811   12.70862247871037    1.84891520601233
H         6.85660360473281   12.54949601079382    2.60208999323695
H         5.40342062947756   12.39838263608057    3.58059195203130
C         6.40517675225338   10.41256424179385    0.93705499346009
H         6.43195795160660    9.34684160379787    0.72308559376662
H         7.41796461189525   10.80294136730658    0.87252631651092
H         5.80124072955145   10.90074323162853    0.17480807805870
C         6.83497140945900    4.92307809357937    8.20097214619868
C         7.58883960082742    4.56434431129582    9.32540731839955
C         6.31957781518666    4.02802782512267    7.31301481249495
C         6.47608698839556    2.64050869358082    7.42059181526275

