59
CSD_code = PIDDUE | q = 0 | S = 0 | Stoichiometry = C26H26AgClNO3P | MND = 3
Ag       -1.01604903690553    3.74944221298657    0.58706313755767
Cl       -1.17253629048304    2.79189174326689   -1.53340785841366
P        -1.16980067847054    3.95860800625420    3.01417201235833
C        -0.24136277251714    2.63034168164144    3.83499490371286
C         0.47158935612597    1.68701825157503    3.07824017316987
O         0.46083785023551    1.86504365852723    1.74034527196547
C         1.05763314357025    0.89608946605805    0.90154764469425
H         2.14328228344870    0.87674392161210    1.03276268466870
H         0.81092557034736    1.20856528684361   -0.11282964533447
H         0.64130891256581   -0.09717047463834    1.08865684764612
C         1.13228612398905    0.65118266536177    3.71905246025884
H         1.69455575732237   -0.09043336541028    3.17820974842834
C         1.08487265794897    0.53837708522601    5.10785611832040
O         1.76556831959825   -0.51637198731158    5.62242431388790
C         1.76098964748747   -0.71916026211809    7.01542787678554
H         2.22095336235300    0.12062211911286    7.54606615182291
H         2.35402094006210   -1.61664570737228    7.18285576013643
H         0.74715300818436   -0.88092436519926    7.39490770197092
C         0.38234597741907    1.46611780152816    5.86892360825939
H         0.34669827057315    1.38203945503577    6.94138066750302
C        -0.27570053884115    2.50812323495617    5.22756302616457
O        -0.97603056511052    3.47935714699494    5.86068795435489
C        -1.12916086546869    3.42568322041911    7.25625385329685
H        -1.63218810791837    2.50556899390470    7.56995247646051
H        -1.75238552439616    4.27971801492477    7.51619893122458
H        -0.16643365351557    3.51254880868605    7.77058678293405
C        -2.81446646486492    3.74744173814632    3.77759657081777
C        -3.52265544861024    2.63096924315117    3.34000746669330
H        -3.07472881299674    1.98132018857813    2.59549215042042
C        -4.78127462719914    2.35995994299466    3.84097254196598
H        -5.32373346301379    1.49051210954513    3.49957583436407
C        -5.34981985341347    3.21238130122989    4.77430765485897
H        -6.33619695116389    3.00755001051282    5.16399681506621
C        -4.65417141133528    4.33096599616380    5.20215730980353
H        -5.09927838062232    4.99736649242351    5.92754599351151
C        -3.39006962497298    4.60181933631795    4.70884310000544
H        -2.84746663440170    5.46866422964234    5.05606169319448
C        -0.50571065495977    5.48066926029247    3.74523123628855
C        -1.20142448551953    6.66369885533927    3.49890033551293
H        -2.13207232382821    6.62386483022126    2.94657664129429
C        -0.70292053012527    7.87341350606847    3.94245551705269
H        -1.25253847872265    8.78485618352846    3.75696662353873
C         0.50851714346294    7.91780509907819    4.61568522524732
H         0.90028419954420    8.86296456564163    4.96182163723984
C         1.22253834918631    6.75031664624919    4.82994649104042
H         2.17580282445041    6.78705042333402    5.33788323314710
C         0.72379011685831    5.53606423437158    4.39197498632148
H         1.29028864165204    4.62831575534630    4.54551261172885
N         0.79296661453357    5.47802181500228   -0.06339313570613
C         1.12472989820189    5.42430130597278   -1.34849224141062
H         0.66025078136833    4.63077859810673   -1.91846850784799
C         2.00401213511070    6.31949535584414   -1.93864600313770
H         2.24044612157672    6.23387319711664   -2.98761733111633
C         2.56320259968910    7.31760716365842   -1.15828200368618
H         3.24993742736277    8.03546964309577   -1.58359677232543
C         2.22085185977501    7.37424585955301    0.18361061565978
H         2.63045666410979    8.13201712044017    0.83386929512607
C         1.33447553948676    6.43348019075323    0.68158867468506
H         1.04720408178787    6.44596318941980    1.72422313677887

