67
CSD_code = PIDFEP | q = 0 | S = 0 | Stoichiometry = C32H28N3NiOPS | MND = 4
Ni       -2.01033294309836    8.36955295791796    9.08352128407785
P        -0.70740769786081    9.86052243079750    8.17017521828865
S        -3.68134310664897    8.64415139834195    7.74026368157004
O        -0.59575103988907    8.15707410792657   10.26135825144818
C        -0.40032434782592    7.31830733247278   11.21691680279500
C         0.82463828887988    7.43203375520798   11.94103907032635
H         1.49955566970732    8.21869818414008   11.63612234720545
C         1.11368504155438    6.59212096567934   12.96255392833577
H         2.04444577242546    6.69076674916650   13.50400904538650
C         0.21560920213588    5.56426153129008   13.35048596188265
C         0.54135735129623    4.69877679307638   14.40812569556406
H         1.48638101819882    4.83781667480285   14.91455758357833
C        -0.31261785216287    3.69974350829459   14.79275992838277
H        -0.05635717582136    3.03751520808466   15.60643042290361
C        -1.52527034346055    3.54174961767320   14.11884270507666
H        -2.20173452524071    2.75339580928724   14.41647053762395
C        -1.86595000895677    4.37513955874051   13.08359398877431
H        -2.81164249763211    4.21256301785082   12.59093676847389
C        -1.01554404948570    5.41404921143884   12.66248548618616
C        -1.32910221540514    6.31125334574894   11.58319906361011
C        -2.55367593491045    6.21703556555509   10.88126034699435
H        -3.26968375017154    5.45936826086179   11.18451317324658
N        -2.95760984736415    6.95386710508870    9.87816869899734
N        -4.19407854052752    6.63040073352483    9.41216349424902
C        -4.62649033944557    7.33691176818334    8.42185787015718
N        -5.80862157353489    7.07698311945802    7.82322541740811
H        -6.13856586067709    7.79392098670635    7.19458379099111
C        -6.79775554019396    6.22025999230250    8.43437421174580
H        -6.25674682061857    5.39962877092210    8.90802501789371
H        -7.43360294109439    5.82152175827649    7.63940088141440
C        -7.64456119848741    6.95203996744891    9.47354099467887
H        -8.36948955415851    6.27226645715913    9.91255424821078
H        -8.17748888723008    7.78383877003529    9.01718786821947
H        -7.00416650028636    7.33857628554942   10.26214018955107
C         0.47100741051622   10.56198911584297    9.36372339875839
C        -0.07669111359150   11.29158831620599   10.41640619855308
H        -1.15084539787103   11.42616190470202   10.45919728350822
C         0.73837401987105   11.81610050657156   11.40040538744847
H         0.30943746758557   12.37940000166433   12.21637507860831
C         2.10775357340059   11.60588704172018   11.34553662438078
H         2.74695976594464   12.00771029998852   12.11803451667697
C         2.65377964934080   10.86820113363864   10.30890804770381
H         3.71953067710411   10.69263278252484   10.27448472143224
C         1.84008136933893   10.34171721389317    9.31931592963828
H         2.26996552109427    9.74997722838993    8.52417579619662
C         0.31699232282615    8.92999967547055    6.98634189714531
C         0.15080038619550    7.55099864291807    6.92839284762930
H        -0.58335992627944    7.08086489832044    7.58776953630143
C         0.89869678844774    6.79458957595918    6.04456317953543
H         0.76776402607852    5.72343762035850    6.00142190480799
C         1.81409807860789    7.41750221231283    5.21193874319485
H         2.40052836435385    6.83055275407570    4.52043729627045
C         1.97540929887401    8.79404459341928    5.25779318715726
H         2.68546352402600    9.27582534407932    4.60133838238825
C         1.22785379385803    9.55358675139258    6.13886415509974
H         1.34268299100367   10.62854236149426    6.17040397774194
C        -1.16546585515485   11.29029134773266    7.13204325743174
C        -1.90593358004071   11.02422076759630    5.98289918576284
H        -2.19174151986603   10.00442731163023    5.76398018196816
C        -2.27690109829913   12.05323361422098    5.13985975488502
H        -2.85056484285590   11.84034571642581    4.24994409639074
C        -1.91606552735290   13.35800753366522    5.43867403041057
H        -2.20741031649270   14.16411173408450    4.78147198917671
C        -1.18471803812965   13.62757994346569    6.58267879174393
H        -0.90339770818444   14.64396091454667    6.81786063895566
C        -0.80953279277046   12.59947327676781    7.43079472544712
H        -0.23670856356529   12.81752616595638    8.32102128243651

