57
CSD_code = PIDHOZ | q = 0 | S = 0 | Stoichiometry = C25H26N2NiO2S | MND = 4
Ni       -4.39981964137468    9.18202871014574    2.16056942137457
C        -5.28726858236605   11.68863683254733    3.16891346056845
N        -5.55147120624029   10.46406787639036    2.84509519614156
C        -6.91852250664573    9.98871912559553    2.97819402731254
C        -6.86680130793626    8.48471810743126    3.24629267250511
N        -5.87503066033784    7.86447157718336    2.34711528347821
C        -6.51957569574215    7.59859878604255    1.05324980624822
C        -5.34062746509201    6.59801316723879    2.90975217493568
C        -4.54228164337773    6.88649342643293    4.19581641975625
S        -3.53794551426083    5.46956845314412    4.74376916553681
C        -1.87298168729081    5.95561091768725    4.13960439592076
C        -1.40508545883569    7.19656542085963    4.82229869895924
C        -1.00016301068678    7.14600523729239    6.15267414653475
C        -0.60205707997017    8.29477089663435    6.80892188402422
C        -0.61176990596919    9.51150225867327    6.14520030570619
C        -1.01697722094216    9.57096837216463    4.82371230743883
C        -1.41239023752022    8.42022324642998    4.16082957188332
C        -4.02740447280324   12.31624931692480    3.02750880416287
C        -3.85357229188518   13.64989423601026    3.44675119374562
C        -2.65171691770627   14.28587258895747    3.30583832928747
C        -1.57379549354710   13.60108727037976    2.72689446485427
C        -1.70486213603216   12.30773997104387    2.30603347911740
C        -2.93303408416709   11.60404314236272    2.44144148113063
O        -2.99635353728980   10.39027004887526    2.04029529065231
C        -4.45075622249923    5.90514317302976    1.90395855621722
C        -4.54952904970540    4.53689075742237    1.71542436858909
C        -3.70741482575556    3.87122443113114    0.84461698746449
C        -2.75057371158395    4.59267371682094    0.14685144347212
C        -2.64113520671716    5.95481829806403    0.31153346286199
C        -3.48344374807123    6.65597864949100    1.19683427062349
O        -3.31900813732874    7.94779759821459    1.31658673984436
H        -6.09318846125462   12.30333204449253    3.57792337116646
H        -7.44358152860233   10.50536553309336    3.79245277438020
H        -7.46092041086679   10.19664046672283    2.04661194382322
H        -6.55515440643265    8.33843610139564    4.28043277030424
H        -7.85380604275268    8.02329456735493    3.11138706951591
H        -5.80007715140520    7.18578912913122    0.34912755340775
H        -6.91839006282724    8.52282888331392    0.63763418052392
H        -7.33799604420891    6.87838315546431    1.17559297805970
H        -6.18224646822362    5.93176552417589    3.15502899965028
H        -3.86316024866166    7.73840725544965    4.03628878587322
H        -5.19445721528903    7.10159946707271    5.04241473569088
H        -1.93506044756660    6.07022344972721    3.05917902646296
H        -1.25051056383001    5.09595338216715    4.38576443217860
H        -1.00646575257889    6.19721362366275    6.67026402251766
H        -0.28492700053546    8.24267284393045    7.84048104968945
H        -0.30296311621117   10.41059094841962    6.65852484471263
H        -1.02996601244516   10.51619690707893    4.30204732793942
H        -1.71614502649142    8.48121847115511    3.12305585841484
H        -4.69642792521808   14.16533930319370    3.88683026295524
H        -2.52816170372452   15.30688668696099    3.63220266431033
H        -0.62590585402002   14.10738864240008    2.61323025615702
H        -0.88105552739630   11.77531409834055    1.85571475072499
H        -5.29216759237029    3.98371683546038    2.27390684062438
H        -3.79456675436352    2.80390752658331    0.71422605636748
H        -2.08359067208134    4.08556467956360   -0.53553481836189
H        -1.90043935096406    6.52722486306129   -0.22536554742742

