54
CSD_code = PIDHIT | q = 0 | S = 0 | Stoichiometry = C24H24N2NiO2S | MND = 4
Ni        4.00976250266852    9.36542894784997    5.11210187479585
S         5.49267448789093    9.65185864875001    9.57707195076802
O         5.22297842823094    8.65989138809237    3.90248125857312
O         3.97119958638503    7.71239609818869    5.93336680274468
N         3.88138260089779   10.96863853724612    4.18456348098689
N         2.85514769169237   10.17183086991557    6.50504127579385
C         2.88924071099624   11.63028846423700    6.28371118517779
H         2.01651493764452   12.11143641588568    6.74402120101345
H         3.78858288256717   12.04525091754020    6.74009364261373
C         2.94357613008994   11.90802571398499    4.78081827359884
H         3.24700547857720   12.94638757258610    4.59342284808649
H         1.95463129380658   11.76204974024756    4.32723513929720
C         4.47751707631689   11.30643282817933    3.08510521266324
H         4.27801727873107   12.29770577943749    2.67028488510316
C         5.95831361348798   10.97068929423743    1.16977439333918
C         6.82578722272700   10.20249685728747    0.44522057386388
C         7.14688077766771    8.91380695256490    0.89638500011777
C         6.60661009663503    8.41495577588305    2.04753381555561
C         5.69698055978225    9.17613574099581    2.83164414432613
C         5.37775919443786   10.49098025467031    2.36115726659463
H         5.69918863624679   11.96616427265666    0.83546412752743
H         7.26230441856846   10.57780694453582   -0.46744246769049
H         7.83217840926109    8.30855575214560    0.32044616136974
H         6.84723137924073    7.42467284106897    2.40144828168605
C         1.46101120000903    9.71863284860378    6.40060391383474
H         1.40669053369262    8.63579650835327    6.48961154627388
H         1.04823163942101   10.00784338249105    5.43559906024670
H         0.85493014293515   10.16433341374833    7.19873394703872
C         3.40282451462812    9.80103944908879    7.83469027344273
H         2.90851039580671   10.40757820141211    8.60921274436687
C         2.67587937597510    7.91587049897173    9.33814631160456
C         2.51712009350947    6.57200819357995    9.61907399382740
C         2.86098389509477    5.63575912794446    8.65533738497101
C         3.34485424190227    6.03194268215865    7.42936574419187
C         3.51694302500284    7.39374028187290    7.11691658356104
C         3.16944503449433    8.33448317505234    8.11447619939217
H         2.42260098953824    8.65700034360333   10.08403740672314
H         2.13393236840463    6.25888784619606   10.57774167963803
H         2.74570490725592    4.58174497082658    8.86420443866261
H         3.61380949871056    5.31130548728628    6.67290386659663
C         4.91808548553613   10.04488109581251    7.88705530335967
H         5.41761704104359    9.38285985982839    7.16486862386436
H         5.19890907870267   11.08303600944624    7.70480404910893
C         7.88063620801653   10.52791910200439    8.42441369694069
C         9.17545173691601   11.00782180338601    8.52817105164233
C         9.74998056921061   11.22987938943481    9.76687954044940
C         9.02229516870900   10.96362764752248   10.91652260341420
C         7.72834650184967   10.49230269082568   10.82463802964506
C         7.14893244072223   10.27706032502867    9.57679803637978
H         7.46453248571342   10.34233445027358    7.44669816619451
H         9.73825890445428   11.20196388674893    7.62686056698089
H        10.76032060766536   11.60349744321140    9.83741474535135
H         9.46351921798018   11.12816882709025   11.88832835002954
H         7.15087730256780   10.28369445001044   11.71234181436920

