169
CSD_code = PIDLUK | q = 1 | S = 0 | Stoichiometry = C56H100CuN4O8(1+) | MND = 4
Cu       59.69946442519016   -4.66246450728451    0.00201987874666
N        58.05351763995546   -2.89735557629600   -1.79273224722394
N        57.85849913983089   -6.37023144015938    1.65441494494805
C        58.68764176803589   -3.58438661131050   -1.11341300966674
C        57.23634034817864   -2.10646723229603   -2.59682943673841
H        57.71092324819185   -2.02208564954733   -3.57982981644553
H        57.18269139155612   -1.11227583529518   -2.14171004658973
C        55.83611642246748   -2.71351325713867   -2.72960886516420
H        55.21432645806753   -1.99256237436470   -3.26242394393710
H        55.40803917650349   -2.85686241215374   -1.73520687596411
C        55.84149987400887   -4.03856529263103   -3.48904395950510
H        56.32170239072716   -3.89543301409354   -4.46027473434233
H        56.42285370092710   -4.78172915843256   -2.93682156010133
C        54.42114991895777   -4.55410299873988   -3.70954344691523
H        53.94892349053978   -4.75232967708437   -2.74462132423671
H        53.83798022310537   -3.77552018628680   -4.20656074197128
C        54.38292613360692   -5.81727918575166   -4.56717918002506
H        54.93933520652540   -5.64017265780903   -5.49059949576402
H        54.87232108305940   -6.63971600394699   -4.03999299363637
C        52.94922845287581   -6.20667753874555   -4.91860965832802
H        52.46071509527184   -5.35349401630208   -5.39521680647681
H        52.39711989435779   -6.42886202316481   -4.00220098981161
C        52.87500803498698   -7.40464272839090   -5.86262625748614
H        53.27164819053720   -8.29205608679272   -5.36469170860547
H        53.49720429848072   -7.21148916917788   -6.73960623620481
C        51.43971358008169   -7.66431448997543   -6.31325244414726
H        50.81626804364866   -7.85630990007847   -5.43686870288296
H        51.05191674990775   -6.76519674910889   -6.79794074638302
C        51.32381521152998   -8.83956544692703   -7.28069360176094
H        51.68299474228006   -9.74890042180499   -6.79494719811870
H        51.95566104358694   -8.65679213169640   -8.15278731053010
C        49.87934996503125   -9.03772254158734   -7.72957171477702
H        49.24681680537739   -9.21160400787804   -6.85737553741363
H        49.52163407712775   -8.12640448078920   -8.21441469911317
C        49.71436136932076  -10.21417404006139   -8.68871809423666
H        50.18746229954566  -11.10949118746858   -8.27549949393390
H        50.16044363956294  -10.01427472888634   -9.66242925174572
C        48.25922062517151  -10.56748186829923   -8.87202907269534
C        46.70846177655100  -11.47130259116084  -10.40356265888164
H        46.79108919706965  -12.38057233900095  -10.99652307797752
H        46.20334954809682  -10.69519700809177  -10.98142830512729
H        46.15307315492707  -11.65783967316259   -9.48257014563052
C        58.56114485931104   -5.71927517975956    1.00711631513304
C        57.03181588138629   -7.21786690527810    2.38850911231608
H        57.62061387334155   -7.61095565512354    3.22357903471727
H        56.20286083221048   -6.62439214994281    2.78680826606470
C        56.50391087858443   -8.36147790528830    1.51588410999579
H        56.07753471034349   -9.11717703099721    2.17704436966707
H        57.33938246589560   -8.81756572552770    0.97992378455731
C        55.43919783596989   -7.90247712001613    0.52152648548203
H        55.83027575373777   -7.08904830454567   -0.09532174706204
H        54.57558286891044   -7.52008794411255    1.07079111370399
C        54.99572719508258   -9.05926730566273   -0.37263421883228
H        55.80660033091084   -9.32064464945826   -1.05653357066563
H        54.79918608042232   -9.93348113639479    0.25235516847150
C        53.73494923536703   -8.74409384320527   -1.17465755682757
H        53.89142175749881   -7.84816624198615   -1.77967226219947
H        52.91449887115586   -8.53799852841448   -0.48351590136076
C        53.35200450522149   -9.91659908660840   -2.07607676658798
H        54.08144664335135  -10.00476711373730   -2.88478658725211
H        53.39745274677807  -10.83996680963208   -1.49359312058404
C        51.95103602172149   -9.78325802209395   -2.66782698481645
H        51.22020957378317   -9.74994249291848   -1.85656596283937
H        51.87224218480960   -8.84721442810734   -3.22381812735303
C        51.62976209356794  -10.95660191608817   -3.59070023270259
H        51.82798670332006  -11.89155803309124   -3.06109866317640
H        52.29580261048910  -10.92469800961233   -4.45627254208796
C        50.18052273929125  -10.95731661470831   -4.07056785801464
H        49.51329317134167  -11.05517342582838   -3.21139811248808
H        49.95635496710933  -10.00697490933085   -4.55829315166422
C        49.92823899294062  -12.10144833448689   -5.04759078111484
H        50.19413807317847  -13.04918605232940   -4.57360706049312
H        50.57155667701871  -11.98223758561008   -5.92134616981441
C        48.47788142002872  -12.16651124387638   -5.52096312080460
H        48.13830447862180  -11.17731230343705   -5.84075673570598
H        47.80637510860471  -12.51710239527706   -4.73801842596699
C        48.33802569841443  -13.05607519973075   -6.73126029526783
C        46.85159471171788  -14.49852281090180   -7.86003014343449
H        45.80248467252250  -14.34289780816594   -8.10482427124815
H        47.01963683928583  -15.54231449738208   -7.58861810386943
H        47.49046150707511  -14.23617111818824   -8.70537069859329
O        47.41097840670169  -10.45677506444488   -8.02264872007636
O        48.02935757340744  -11.04350139273426  -10.09684818010944
O        49.17431930992917  -13.18742241648788   -7.58985399570176
O        47.15326780663957  -13.66814233137988   -6.74601530430619
N        61.34564532860065   -2.89667424331391    1.79677328189657
N        61.54018106310532   -6.36878490116222   -1.65175376046516
C        60.71159225229896   -3.58401452297646    1.11772240739094
C        62.16274570198068   -2.10499148904015    2.60017720203298
H        61.68922085801484   -2.02158038761201    3.58377000382643
H        62.21457032507797   -1.11057230311908    2.14535279297426
C        63.56384540767146   -2.71036389248071    2.73124612726978
H        64.18524254335952   -1.98910054323955    3.26409853705501
H        63.99128867257473   -2.85248566785167    1.73640127786941
C        63.56042384366625   -4.03594309414749    3.48973030188742
H        63.08021955626271   -3.89407946688577    4.46115055637766
H        62.97985944648165   -4.77942570645101    2.93711141513492
C        64.98130846270371   -4.55010776846748    3.70974048435406
H        65.45369930079008   -4.74737924707759    2.74471037697618
H        65.56378005840781   -3.77129866266390    4.20721316590311
C        65.02044856992342   -5.81369571649197    4.56667393480918
H        64.46405640406159   -5.63735665338114    5.49025994203753
H        64.53135447544543   -6.63608593569090    4.03912871101726
C        66.45430193372897   -6.20270173301847    4.91777709468023
H        66.94280168505419   -5.34943165800164    5.39424827603698
H        67.00629626135778   -6.42495728390321    4.00131512911629
C        66.52837602499139   -7.40052470107970    5.86190101743628
H        66.13035889254002   -8.28764788257473    5.36452034545103
H        65.90716605606460   -7.20659910021265    6.73942346991402
C        67.96370552578674   -7.66175934781093    6.31139567464631
H        68.58604281788762   -7.85600721339967    5.43472766414871
H        68.35348400898020   -6.76269069939049    6.79457378056089
C        68.07799354151307   -8.83594052115988    7.28026951459554
H        67.71571175167672   -9.74494494443098    6.79619172248032
H        67.44769529697962   -8.65029765318255    8.15288476328658
C        69.52234640406668   -9.03760744940687    7.72777911414244
H        70.15333896252805   -9.21530250923022    6.85526842588456
H        69.88352840901905   -8.12648907840559    8.21039495388959
C        69.68430429343356  -10.21263152704385    8.68909438368577
H        69.20856977401645  -11.10738806127238    8.27771940140056
H        69.23885560847759  -10.00964130133666    9.66247085121396
C        71.13831942175999  -10.57024526597816    8.87302824970569
C        72.68349409526537  -11.48274317549391   10.40630542246716
H        72.59816304518795  -12.41271808437136   10.96599718656001
H        73.17667607446975  -10.72514304595580   11.01779535475849
H        73.25111402214195  -11.63492934193954    9.48644394850932
C        60.83741440162607   -5.71868381090507   -1.00371776897584
C        62.36631383930143   -7.21556777462998   -2.38746534195295
H        61.77696343461619   -7.60738257423966   -3.22274749114963
H        63.19510472139280   -6.62161184368042   -2.78540808093189
C        62.89470443009985   -8.36045515415374   -1.51685749431587
H        63.32077286282472   -9.11511909674662   -2.17939792987921
H        62.05959361163736   -8.81742672326332   -0.98109212977697
C        63.95992292198684   -7.90271318732843   -0.52248337873357
H        63.56913395436744   -7.09003527340246    0.09555081731941
H        64.82326793641195   -7.51963636762247   -1.07170933528901
C        64.40390929088244   -9.06045264028240    0.37014672134265
H        63.59309038264154   -9.32320909293092    1.05359312637554
H        64.60112789620774   -9.93375394388712   -0.25591140554308
C        65.66428628175775   -8.74527043561199    1.17278078761240
H        65.50749013444354   -7.84926628818081    1.77762052379604
H        66.48509344892040   -8.53921011871958    0.48204522848370
C        66.04680025273790   -9.91758967541763    2.07458370642912
H        65.31672159783496  -10.00588947477875    2.88270459234107
H        66.00216451853520  -10.84104059277495    1.49217283396009
C        67.44720744814389   -9.78352894385280    2.66744949943591
H        68.17872148089415   -9.75110646004588    1.85677560603856
H        67.52546287950055   -8.84680539738530    3.22238189081847
C        67.76789030342790  -10.95572330592521    3.59198753072797
H        67.56832967698408  -11.89135423894399    3.06408438302969
H        67.10258828182826  -10.92171928491671    4.45803725903336
C        69.21755359783941  -10.95690938237803    4.07050891023020
H        69.88374665680399  -11.05787395663643    3.21088631512847
H        69.44336482301038  -10.00549126935589    4.55538480871816
C        69.46979329019433  -12.09866440364531    5.05030818963926
H        69.20075305627554  -13.04726051248590    4.57983489178386
H        68.82908231768732  -11.97556915005053    5.92540969914127
C        70.92134504484842  -12.16507832125153    5.51969698307174
H        71.26315062821722  -11.17591546868235    5.83717008820640
H        71.59006109565293  -12.51755830371835    4.73519979543574
C        71.06392669313459  -13.05339597993426    6.73057835316374
C        72.55545628892803  -14.49393229152785    7.85648401773281
H        73.59831430024545  -14.31825866927073    8.11468640905946
H        72.41221871343207  -15.53940649976304    7.57759651321735
H        71.90156456712613  -14.24844159173915    8.69539821895222
O        71.98750622698442  -10.46028833239267    8.02449143410030
O        71.36520092018307  -11.04848148186121   10.09744313529524
O        70.22964616115756  -13.18393265700827    7.59123394156208
O        72.24886694446569  -13.66512295318784    6.74259982054456

