155
CSD_code = PIDNIA | q = 0 | S = 0 | Stoichiometry = C62H88P2PtS2 | MND = 4
Pt        7.95843603914312   -0.57472809638430    6.22924826654958
S         3.95460444145383   -4.10588663881431    4.49595425255883
P         6.03704657641306    0.64558885637812    6.04079460780879
S        11.80161356171794    2.63522287826342    8.69715642364998
P         9.84665133744575   -1.82380837127405    6.52915507154759
C         7.03491072290047   -2.24311066096717    5.64317170354011
C         8.87268534038790    1.06422049175965    6.91167685876112
C        11.38527346255582   -0.90899639432127    6.95889214608135
C         5.61669861808360    1.54040087521955    7.58743465930346
C        10.33445573061677   -2.98946103507186    5.19585550190713
C         6.40094292103079   -3.23554562461272    5.34153209465282
C        11.99413839660608    4.29181981060928    9.21963009810821
C        14.24991852371088    0.24447409335807    6.88852680915140
C         3.22043391211817    0.48532611306860    5.43905865657218
C        13.16087043791026    4.69866116061496    9.85289353340215
C         9.54423369969059   -2.95758911838450    7.94139139714396
C         4.51681396153277   -0.29834702326624    5.60475635761915
C         5.68740061648560    1.19465246632438   10.11383977692472
C         3.75747686507747   -5.82700594281729    4.26017006888893
C         9.47043378492974    1.98050849315703    7.44212756233939
C        10.90902096077182   -3.20156440483513    2.74451302036967
C        12.65986962914305   -1.73325138812243    7.10341866242577
C         6.10483511088512    2.02795083465829    4.82661817880755
C        15.39096594962807    5.40332563368536   11.02808648242201
C        13.78761319123785   -0.92496357054331    7.74905668801064
C         2.54427901461830   -6.34989003638800    3.83271938214436
C        19.06440983043338    6.59452136715237   12.91497253934820
C        -6.01438915967150   -8.78482271566837   -0.26129275162208
C         6.44270453786857    1.55355439321738    3.41490057965641
C         0.08242638527577   -8.67867874077263    2.84651402433677
C         5.62022075614627   -4.33336846705197    4.98224737468848
C         2.05149430639737   -0.46222976073060    5.17112272925857
C        17.56984440675595    4.85436904586745   11.88886647103960
C         4.91869780160306   -6.50165802673199    4.54834046095355
C        10.21398114202587    2.98998945496916    8.05229902477110
C         1.47515444343949   -6.77708422398449    3.45658144141526
C         0.24491507495470   -7.30205233537704    3.02198227997465
C        17.77041458361450    6.17290913883102   12.28324511149892
C        16.76509023828138    7.10161224051011   12.03663812346609
C        10.57479376944034   -2.24521676506889    3.88632129295153
C         8.15877580829102   -3.05849782734726   10.08411672347600
C        -1.12788333661424   -9.18435412508139    2.42019643939146
C        16.39939378118443    4.46692146812589   11.27081734210746
C         9.88688234147736    4.30859847148928    8.25210405335745
C        15.58877528085236    6.72969923894159   11.41969228155213
C         5.50426980370414    0.54600491915887    8.74177037713963
C        11.12697419616406   -2.46519544201308    1.42860722192418
C         6.84239457506853   -3.57835340576661    9.51779394525863
C        -2.20503168049131   -8.34369162692084    2.16053665405524
C        -2.03743444992797   -6.97401710207223    2.33405057078051
C        -4.74504478361830   -9.60900865420417   -0.46639338621855
C        -0.83337697062484   -6.45294602981383    2.75963940110572
C         0.74390526667021    0.29493659401030    4.97525620079377
C        14.19610454140409    5.01218769589846   10.39784475185519
C        -3.49357570861391   -8.95819181247228    0.12145569845458
C        10.88598304026242    5.04001225795245    8.90614839165126
C         8.20043755301156    0.51650673841959    1.92574004182047
C        21.45175038660618    7.35191236708148   12.39655911040759
C         7.14108361238790    1.54824508382036   10.40479591666233
C         5.96370823325001   -5.66268075415414    4.95356429113584
C         8.91549045131926   -2.17477318161031    9.09349863763701
C        22.87759706605224    8.98526242066433   13.68655298405861
C         7.88438633081430    1.06439142198576    3.31024189970926
C        21.46627550869506    8.62716990152555   13.23663855396410
C        -3.50427844233857   -8.89773501907990    1.65435286978240
C        -7.21064987104500   -9.41478087829067   -0.96455385889598
C        20.07287040224928    7.00712000662043   11.83506207759181
H        11.16384875991238   -0.38405041634620    7.89370533384343
H        11.50614550367934   -0.13840139863949    6.19305837686604
H         4.70408442238919    2.13019544482653    7.47086820276242
H         6.45010907358268    2.22510660995645    7.76456571177637
H         9.50018099409927   -3.68644369871908    5.07243352719343
H        11.21800198875865   -3.55619054777276    5.50227758772900
H        15.10562109202308    0.73276966771440    7.34831764726116
H        14.54298450326855   -0.10002722802721    5.89864539805798
H        13.46082521916867    0.98337032612637    6.78184156607619
H         3.30651761731739    1.18321302049140    4.60361464683440
H         3.00800258705853    1.06350012792720    6.34116631648775
H        10.45807020231841   -3.46947052991700    8.25303504342618
H         8.83820361292373   -3.70540862633230    7.57080036984687
H         4.40518451516758   -1.05383785804000    6.38959257078383
H         4.74582162346012   -0.84913429036981    4.68732756557521
H         5.33473983475895    0.50106292216827   10.88084546044272
H         5.06926092831842    2.09401097883485   10.17341066630744
H        10.09317381550405   -3.91826409033446    2.62742960951874
H        11.81099388486347   -3.76462644127209    2.99880436242745
H        12.99198717116977   -2.08252909884497    6.12347488009615
H        12.46602168199811   -2.61155174296052    7.72421980261313
H         6.87691139677341    2.71770773733716    5.18135890015599
H         5.14475289333336    2.55195750148126    4.84462431384547
H        14.63430669304769   -1.59252841975072    7.92833446962162
H        13.45143349607811   -0.54691803306311    8.71691152629531
H        19.48236492213524    5.76816789988986   13.49441325261338
H        18.88666351984758    7.43306419386726   13.58970227419158
H        -5.85488161297782   -7.77644744792951   -0.65062218291090
H        -6.23332045998580   -8.70083660590166    0.80452647411181
H         6.29244736679520    2.37933501553223    2.71277683711554
H         5.76522363085537    0.74616073169676    3.12472190922058
H         0.91288477468597   -9.33979071743235    3.04885438390411
H         1.94936905209907   -1.15504282846821    6.00909554701234
H         2.26682396808611   -1.05677698384258    4.28087423801782
H        18.34340705465677    4.12194298998799   12.07414124472964
H         5.00091813207779   -7.57164211388826    4.46514980740901
H        16.90786656427441    8.13033387734003   12.33727366054516
H        11.39028624736694   -1.52775549813199    4.01027297637233
H         9.66967889304320   -1.68199512243228    3.63885072538909
H         7.94727727447390   -2.47530479611396   10.98356199482985
H         8.79171524656691   -3.89966432288856   10.37824090076906
H        -1.24400286624965  -10.25133796429263    2.28885914612764
H        16.25066433862941    3.43961437460006   10.97060816574382
H         8.95001846532337    4.72936649811934    7.92830424567281
H        14.81189923837616    7.45762418957837   11.23480474625494
H         6.27690487787646   -0.22246463377418    8.60687486926269
H         4.53198698417048    0.04947296290591    8.69967588605483
H        11.39407295186035   -3.16376853009666    0.63929305314887
H        10.22076431674478   -1.94305694183292    1.13083408078316
H        11.92831449148529   -1.73555894106622    1.52624021642433
H         6.31682946194623   -4.17116094903880   10.26282187837878
H         6.20362020338406   -2.74831419142377    9.22411843792743
H         7.00377646112903   -4.20119500853885    8.64185059958402
H        -2.86643784417669   -6.30885513504570    2.13516718885422
H        -4.59080192256704   -9.74933918504080   -1.53946591137954
H        -4.88140991950797  -10.59806484271237   -0.02202274275595
H        -0.71270061191140   -5.38761869843178    2.89458395080032
H        -0.07286617247103   -0.39777979472818    4.78898752749315
H         0.50258507639897    0.87882787257431    5.86127622887869
H         0.81738019904145    0.97371868762113    4.12802952476531
H        -3.38781138540671   -7.94566300075832   -0.27531919609091
H        -2.61627451693911   -9.52804564586313   -0.19532484042035
H        10.80899249548092    6.08661697634510    9.14533110312467
H         9.24630948057415    0.22636985863720    1.86103924897773
H         7.58511008049751   -0.35435697704468    1.70918306776293
H         8.00823993419916    1.26935476867854    1.16305640801005
H        21.81509440659922    6.51741551119873   13.00133966750034
H        22.14473213641868    7.47804906251454   11.56069147995169
H         7.23046324884894    2.00793948971363   11.38632150796082
H         7.75820497527856    0.65300626601546   10.38548023769244
H         7.53673389043772    2.24117812249762    9.66720164385441
H         6.94639183979350   -6.01363398071339    5.21958402511102
H         8.21371300903606   -1.44361573798624    8.66214763024742
H         9.69225579805966   -1.61514646028062    9.61963651917222
H        22.87096786521820    9.89355673495113   14.28466507522242
H        23.30126153380124    8.18280923932362   14.28669016241294
H        23.52432972952912    9.14573869669088   12.82655336337328
H         8.05241677875098    0.26949603487784    4.06327532374941
H         8.56189161932152    1.88921114701454    3.54229772302825
H        20.83541466520863    8.49765498651468   14.11752891532775
H        21.05383070922432    9.44986182022198   12.64783441857923
H        -3.65890778962376   -9.90455836711598    2.04893088725984
H        -4.32770848812321   -8.26578265728637    1.99018736501941
H        -8.10676964756122   -8.81923094389097   -0.80560453191639
H        -7.03130041680591   -9.48553772942557   -2.03537530113151
H        -7.39281744943820  -10.41705546889316   -0.58239208126039
H        19.67738748544884    7.86460435081805   11.28550614654753
H        20.17567833899817    6.18190321280944   11.12578888661819

