125
CSD_code = PIDNOG | q = 0 | S = 0 | Stoichiometry = C52H68P2PtS2 | MND = 4
Pt       15.13172787385871   12.55999913514723    0.00005474138535
P        14.60298699642733   10.44603241544628    0.65562262535350
S         5.01711029758499   15.94117993521178    6.30333935883663
C        17.10566997762739   12.48936838520579    4.78574796398440
C        15.68570680326871    9.04773765438824    0.14974842382133
C        14.72664608066158   10.43902012078881    2.49038073016659
C        13.35959502708365   13.09958659353218    0.75021036932773
C        12.49769997917873    8.52411242543168    0.90621226417414
C        15.94761483904622   11.57441824315830    4.40699027119310
C         8.59058994026496   14.26583444527142    3.04691743639153
C         9.85198913871704   13.31860215750633    1.22880576341958
C        15.91265678749063   11.31012872670728    2.90542165245472
C        11.04979996238050   13.67869164857129    1.85705267548296
C        15.61972656628659    8.83334390050321   -1.35950709919879
C         5.07193992224560   15.10038434921275    4.77309519808434
C         7.35644078957874   14.56107526215647    3.65122229615388
C         8.64023869774568   13.60609070082602    1.81412500710947
C        10.12602339564696    9.11708320466429    1.62524701056136
C         9.78613411614967   14.62867273533934    3.67720089308321
C         6.28668951403958   14.80680952695031    4.16254932224320
C         2.80180153941027   15.25364048274650    5.20591193346911
C         3.80822788631363   14.80857147931675    4.32861659858420
C         3.29910607931216   15.87733567412282    6.30605162665086
C        11.00244532461128    8.24156041135663    0.73663745906347
C        10.99571245843485   14.33668571353432    3.09095157287023
C        12.29323100181253   13.36966843458076    1.26425330305993
C        16.76115193218644    7.95270254134899   -1.86086362663422
C        16.65573303127986    7.69063285239482   -3.35790757128002
C        12.88850371981006    9.87410288898345    0.31389679959284
H        17.11771274252710   12.67109638937725    5.85775637962143
H        17.01379544801881   13.44550119024013    4.27502437646091
H        18.05518781097377   12.04067572441999    4.50217097506170
H        16.70457451690794    9.33195803603563    0.42922135380827
H        15.41722576182144    8.14037652395515    0.69739935276215
H        13.79903956684625   10.87321053277565    2.87611039746724
H        14.83150956715683    9.42243117603031    2.87904483887108
H        12.74098656205058    8.50062410190387    1.97039857499003
H        13.06304119472294    7.72990291708543    0.41380665302056
H        15.00557182430268   12.03570144815162    4.71253840072148
H        16.04140965956002   10.62573852914579    4.94199570342851
H         9.88895155410411   12.81255359606072    0.27312616277051
H        16.84617717758485   10.83328928680167    2.59610431030325
H        15.83856104633823   12.27430603369140    2.37033446594318
H        14.66325937583381    8.37905456024842   -1.62999386845082
H        15.68073581088826    9.81039323074660   -1.85071521786853
H         7.71660988945654   13.32501003015030    1.32773667403223
H         9.08030575136761    8.84275891244423    1.50864891685606
H        10.22698079128340   10.16934644999623    1.37255820532548
H        10.39735898462473    8.98976429592503    2.67115915314011
H         9.74695331864761   15.13916745418613    4.62923747784145
H         1.75032249283700   15.11457294193286    5.02580708552595
H         3.62146677038219   14.29244862542155    3.40379698634992
H         2.76221249375045   16.30893794336259    7.12745588739548
H        10.72405742573422    8.38846445137863   -0.30945955227484
H        10.81591178585391    7.19364764772123    0.98372845652801
H        11.91895308300732   14.61257309655800    3.58083075750324
H        17.71095279357634    8.44651828555669   -1.64483409434645
H        16.75009915418985    7.00066648946599   -1.32372069695734
H        15.73835207262929    7.15359392197757   -3.59077655221856
H        16.64877670501070    8.62902569939235   -3.90762738176150
H        17.49876678151958    7.09688586632930   -3.70277155474367
H        12.25089755669010   10.66869069264523    0.71053897261705
H        12.75677220872989    9.86719308253746   -0.77311994376766
P        15.66022380439488   14.67407435643263   -0.65562831108429
S        25.24608699700206    9.17842095059151   -6.30357165306033
C        13.15967796210324   12.62922469225250   -4.78604622450809
C        14.57701580677643   16.07221062763821   -0.15030227477541
C        15.53730807263454   14.68080353534389   -2.49045878528090
C        16.90371281819236   12.02026890023515   -0.75027270853558
C        17.76514098685426   16.59616004585397   -0.90628648244215
C        14.31765862436962   13.54426422390066   -4.40725952389996
C        21.67244511981247   10.85355278042919   -3.04723986509785
C        20.41113927020804   11.80025153566849   -1.22881562631122
C        14.35161383000313   13.80943752690492   -2.90582286649290
C        19.21329752202082   11.44075467079202   -1.85731463376006
C        14.64261794825712   16.28693341139121    1.35892273010529
C        25.19123736685735   10.01823434164803   -4.77274975822734
C        22.90662064729468   10.55815133154480   -3.65145001420518
C        21.62285983670280   11.51273896080328   -1.81414391905037
C        20.13758841991341   16.00362792356782   -1.62306118795196
C        20.47686859190639   10.49120653734366   -3.67773993816222
C        23.97644747054243   10.31195438737189   -4.16233634400476
C        27.46141996329857    9.86417000954755   -5.20497462888902
C        26.45495241059522   10.30939515918908   -4.32780825981230
C        26.96414946494669    9.24113435544985   -6.30549758318245
C        19.26013430101152   16.87956941627139   -0.73588865632521
C        19.26729570660563   10.78320394897085   -3.09146010093940
C        17.97001648932266   11.74979092094342   -1.26427225138228
C        13.50093830743003   17.16755720316950    1.85970351225945
C        13.60605746271240   17.43023194962295    3.35665386784913
C        17.37444241053863   15.24645308042021   -0.31325694360817
H        13.14802620352267   12.44700996560776   -5.85797859123197
H        13.25135908592746   11.67333289752415   -4.27482177233454
H        12.21003081214423   13.07803170005166   -4.50305783188262
H        13.55829578966297   15.78763637125356   -0.42996112450592
H        14.84540222200175   16.97950643409313   -0.69811660129842
H        16.46515016173962   14.24672395443172   -2.87576661721527
H        15.43241995427958   15.69732602447096   -2.87926505593260
H        17.52260311083102   16.61873758171440   -1.97066674596940
H        17.19909195787797   17.39048804259619   -0.41488819413949
H        15.25977983512396   13.08252650786768   -4.71191557232171
H        14.22444363446496   14.49261499381785   -4.94296919182608
H        20.37420669614340   12.30588653358425   -0.27291194997686
H        13.41784920871093   14.28636808345427   -2.59734033633934
H        14.42546322070696   12.84555396649372   -2.37016992362038
H        15.59894318900650   16.74145428905931    1.62953200555638
H        14.58164273230726   15.31000406155099    1.85039397739953
H        22.54649869278531   11.79338874593091   -1.32752816508902
H        21.18307604214407   16.27869896907315   -1.50615961632920
H        20.03709788613984   14.95158121362667   -1.36929947987214
H        19.86677173983947   16.12966675704456   -2.66926340947675
H        20.51603668978106    9.98109064101528   -4.62997576342752
H        28.51291244225784   10.00273759401314   -5.02453307442841
H        26.64168399387748   10.82504370424559   -3.40272152281500
H        27.50109868042994    8.80966237915657   -7.12693652950830
H        19.53786069993445   16.73380207393638    0.31054489634417
H        19.44634022849478   17.92733566339770   -0.98385186306341
H        18.34403865876671   10.50769927895168   -3.58151040454676
H        12.55125933319078   16.67349756687150    1.64367915235333
H        13.51193728969417   18.11938572377782    1.32218404292393
H        14.52331232035167   17.96751267510443    3.58947089563300
H        13.61307176326025   16.49205804470500    3.90674642514513
H        12.76286656265960   18.02397433649238    3.70112514355402
H        18.01250192854682   14.45178298685878   -0.70901824036891
H        17.50557026277429   15.25415224728079    0.77383281270411

