42
CSD_code = PIDYUZ | q = 0 | S = 0 | Stoichiometry = C15H16N4O6W | MND = 6
W         4.98740858646166    8.51195437512612    2.00620533363826
O         2.77046434663868    6.32251753905188    2.29237605087658
O         3.13901656793813   10.15566064848903    3.89456308661809
O         7.13758016180710   10.76776484798811    2.31478604415964
O         6.07274155733870    7.24596194386135    4.63436126031831
O         3.47211202154510   12.88850541127267    0.00968664186978
H         3.38477101874076   13.60298677585043    0.64842036304713
O         9.79153955582830    7.30344748435907    1.60449075588301
H         9.93508884626774    8.13182541536687    1.13325259104983
N         4.24937402546378    9.35612271703003    0.07198975784430
N         4.22032838142924    8.61848305773518   -1.05080477255396
N         5.88436407695284    6.99346899179355   -0.60901763889221
N         6.30533477301615    7.34536209853028    0.61713134604695
C         3.58675138581011    7.10142367682454    2.07888535054601
C         3.80799391631781    9.57066517965023    3.16539509876760
C         6.36401407247688    9.94352876177317    2.11898951825681
C         5.69654110415435    7.70502107172062    3.65155171775361
C         3.80597566751107   11.70691741921605    0.70115543358571
H         3.03916526158647   11.45553924040220    1.44951905913488
H         4.76559654499078   11.81519452632526    1.22932864214120
C         3.90581268153048   10.58542865583142   -0.27653666377488
C         3.64953053002680   10.64093245945881   -1.65525857737148
H         3.35187274543444   11.50757678175527   -2.20560115355113
C         3.85982755471546    9.36613384584861   -2.12679462316442
C         3.73599250897878    8.81840314338766   -3.50118786775786
H         4.68709279158819    8.41990871053398   -3.85548502330157
H         3.42841422506061    9.61396607792533   -4.17325326466797
H         2.98952972209436    8.02496133501637   -3.54409559923958
C         4.51482138977315    7.21488151050387   -0.98314869226623
H         3.87006404317353    6.76286058858944   -0.21053585962996
H         4.32255011493287    6.75369764450367   -1.95319554229083
C         6.70754510072379    5.92230441032640   -2.71964850169838
H         5.94842946573090    5.14135274613936   -2.76846957001828
H         7.64813331430944    5.50640485471729   -3.06860840560303
H         6.41900695359975    6.72970466700120   -3.39314057371174
C         6.88017801589090    6.41607275344089   -1.33040467988257
C         7.98517166412499    6.39969796233173   -0.51178772483872
H         8.95839329645929    6.01415973864074   -0.73351207870754
C         7.57712097832987    6.98856448510028    0.69724993279721
C         8.42508185988375    7.18329637482915    1.91571809335939
H         8.05967582168006    8.04689362355415    2.48806099834343
H         8.34509334967804    6.29774644816682    2.55566973690784

