27
CSD_code = PIDYIN | q = 0 | S = 0 | Stoichiometry = C10H8N2O6W | MND = 6
W         9.17354361906586    9.23810396925194   11.22733758601600
O        11.51357185852783   11.32621526859887   11.33614252792985
O         9.44433393485244    8.97132779135315   14.34270370595144
O         7.21711538633378   11.60787397807247   11.78000432646520
O         6.64256199926162    7.38361058387936   11.16174799765059
O         8.75893061258385    9.76183791666530    8.16002874747331
O        14.20743709006708    7.96497785827742    8.83991382223671
H        14.62579438029870    8.15031283652409    9.68834015029393
N        10.61520842230443    7.58603141143364   10.78076632005618
N        11.62754365013456    7.79175806313790    9.93118472809311
C        10.69419857308575   10.52993572286748   11.28437834448352
C         9.37304363281964    9.00747258306728   13.20329699452064
C         7.92980294437401   10.73557345111182   11.57984652757558
C         7.60130962351428    8.00233091752943   11.18392195874267
C         8.94050299009764    9.53297121966446    9.26465088313362
C        10.72056252594076    6.32970813621621   11.19385056136552
C        11.83822690080710    5.72540034764979   10.59300186071049
H        12.18035791033860    4.72139574588646   10.73327081129096
C        12.39589004268393    6.69361288340920    9.78674990614200
C        13.58888928681437    6.70128785104833    8.88447425783403
H        14.28878454390137    5.91395250894701    9.19153223927891
H        13.27472363377534    6.49525831120711    7.85510299902773
C         9.76230188054047    5.71362102190561   12.14664607892351
H         9.53151854266046    6.40451685927986   12.95633310415379
H        10.18130600792249    4.80058982132854   12.56109468687280
H         8.83067851123860    5.46624800669068   11.63780777413587
H        11.77176149607681    8.68317493499938    9.47467109964661

