18
CSD_code = PIFBEL | q = 0 | S = 0 | Stoichiometry = C3H9Cl2NOPtS | MND = 4
Pt        0.40224938979607    1.38641221972143    1.13314189935827
S         0.92982992660372    0.15702903785520    2.97740414180433
Cl       -1.44235428754604    2.22622572351741    2.06001268074615
Cl        0.17342919050005    2.60587581064731   -0.72833210270296
N         2.25113443000251    0.62232920147020    0.34758791951195
O         0.25018968149832   -1.01254831822021    3.48737141821658
C         2.64846771211794   -0.41502397580120    2.52640200437991
C         3.21482733344642    0.48793716346174    1.44356795800366
C         1.33614924050302    1.21964098609159    4.39635916224643
H         2.55399442205277    1.29842342388600   -0.35575335909699
H         2.10084267359388   -0.26961347432500   -0.12298073647513
H         2.50933603542371   -1.43379983549680    2.16581906297280
H         3.27276055611797   -0.43378672183173    3.41504881619848
H         3.40362477501876    1.48687778758565    1.84966859842727
H         4.17174787370574    0.08247084250031    1.08564657675870
H         2.01131392401894    1.99904961661351    4.06101482267592
H         1.77186603610977    0.61529897359760    5.18340230063858
H         0.40249108703631    1.65910153872710    4.73311883633608

