59
CSD_code = PIFDOX | q = 0 | S = 0 | Stoichiometry = C24H30BrNPtS2 | MND = 6
Pt        2.77969796766060   12.93069464622852    3.01027069249970
Br        3.29939735584171   10.54016137479685    2.20891395711370
S         1.48942003146916   11.87757798443326    5.03010161671682
S        -0.34548294199743   15.62972252584110    0.05794350088215
C         2.27933865032013   14.82169008132598    3.68610117263787
C         3.87244612710685   13.58899377072972    1.38377542708333
C         4.52824197234420   13.08051719363144    4.07015678433350
N         0.56416941930460   12.52763113135783    2.16506925911101
C        -0.10309116806316   11.52542761828893    2.74308240729847
C        -1.30223492022859   11.03866007487141    2.23355895158738
C        -1.82095017975010   11.59431433118971    1.07881802628156
C        -1.13196956587582   12.63495970579324    0.48825694628053
C         0.05215384554356   13.08233526445070    1.06441207992785
C         0.77492890534511   14.22749872217214    0.43931629849685
C        -0.43866695132651   16.32239846446196    1.70113194925661
C         0.38828668215211   17.38058320807306    2.03667971661475
C         0.34917463409666   17.89998485717996    3.31742776961697
C        -0.51412940769068   17.37587831331849    4.27069464652993
C        -0.53608670164963   17.90989199545264    5.66860679305249
C        -1.34952706998384   16.32439287781754    3.90980920402520
C        -1.31631830782624   15.79512536444832    2.63401440679520
C         0.46325466632866   10.84536974229556    3.94995589942050
C         0.33245697325957   12.97128888441485    5.81212478195887
C        -1.01568366795556   13.03074755288816    5.49938257580193
C        -1.85303227293095   13.85250346508997    6.23387296447546
C        -1.36971936360290   14.63593048449095    7.27267476399966
C        -2.29103124699515   15.49277386149739    8.08489947188501
C        -0.00888098882874   14.58410868640945    7.55806589310749
C         0.83373101738670   13.75773522986411    6.84474936351009
H         1.19056092473376   14.90455253533139    3.65706007057914
H         2.69827028483103   15.64666099741114    3.11141478666097
H         2.59209106643651   14.95460475284296    4.72183605146429
H         3.39597010904289   13.16377704263368    0.49706147839856
H         4.88752235038656   13.19519516342963    1.44371122082262
H         3.92524114051648   14.67483924253883    1.29683110581821
H         4.26639309654670   12.89394230442851    5.11428210241031
H         5.01499713273314   14.04983280487383    3.98537709357822
H         5.21146924928161   12.30144393605053    3.73450919477548
H        -1.80596640663254   10.22696456506245    2.73539448894315
H        -2.74208731024361   11.22592939184404    0.65382481699139
H        -1.49658910151270   13.11821654116476   -0.40426271195790
H         1.56294888939875   14.60039355370648    1.09037803021773
H         1.19079268496641   13.93461896880367   -0.52557751482991
H         1.05926976648369   17.78817370292271    1.29594911845482
H         1.00127433699204   18.72051171152005    3.57871915363128
H        -1.55533182028926   17.96379465636830    6.04465031907335
H        -0.08698885791281   18.89856156228258    5.71605109944888
H         0.02794619742256   17.24339387643138    6.32177173982637
H        -2.02978024584757   15.91354216357778    4.64032620583924
H        -1.96631864817027   14.97650652128564    2.36043918232147
H        -0.31877208284250   10.38212418898588    4.55275901299886
H         1.15915254211894   10.06487921333724    3.61560573581949
H        -1.43050615822143   12.44901007260371    4.69086988201104
H        -2.90697275259363   13.87381493512576    5.99343130938136
H        -1.78249032867136   16.38725527707867    8.43631984511634
H        -2.63546853738631   14.93919439268363    8.95883564740234
H        -3.16541206617394   15.78445367166842    7.50803512472679
H         0.39149789640876   15.18702784707662    8.36039881308802
H         1.88519315454832   13.70728699391492    7.08513027669475

