66
CSD_code = PIFDAK | q = 1 | S = 0 | Stoichiometry = C30H30ClN4Ru(1+) | MND = 9
C         8.43064583674334    9.92011210533376    2.46265962617179
H         9.06202671988152    9.41370370488065    1.74196429358209
C         8.58564311589468   11.26469402219388    2.74135194398799
H         9.32867676995078   11.84200729389616    2.21652007414880
C         7.78474383166933   11.84107135292457    3.72022561749309
H         7.89641438043725   12.88255622658354    3.97574811522778
C         6.86123590831029   11.05596671527522    4.38467279588493
H         6.25718345712291   11.46365228134205    5.17630126275905
C         6.73489468295826    9.71330286630929    4.03392757130174
C         5.94246295645257    8.70351515993393    4.71860141887254
C         4.85563380546612    8.88214872068828    5.62165510327033
C         4.07149933002555   10.12529380874814    5.65347891473415
C         3.40698685621338   10.51628053239124    6.81280248171710
H         3.51390158549875    9.93060845888562    7.71074179339739
C         2.62548038147373   11.65911640538495    6.76840887412454
H         2.10074223474078   11.99750556504496    7.64889778284546
C         2.52579188301515   12.35516387960785    5.57365945812416
H         1.92484887885915   13.24657204843886    5.49440538744517
C         3.21711389095208   11.87172765419952    4.47046785588672
H         3.16429881870958   12.37141208599476    3.51228347125070
C         5.01311359470955    6.69331751681271    6.26139696623940
C         5.99516430900366    6.44782144649500    5.25365904026217
C         6.57891249455020    5.17595944211194    5.15705870765321
H         7.37958842939640    5.03504935056791    4.44107882169586
C         6.21866601588444    4.16357491353029    6.01363989506882
C         5.21473210389353    4.39295945680964    6.99539878234455
C         4.63866290194254    5.63604797460518    7.10450088858294
H         3.88977216319279    5.83780825949797    7.85383150443909
C         6.88892799347509    2.83304595578003    5.92479303011974
H         7.66331248306829    2.83974424019971    5.16311273823588
H         6.16648942961887    2.05265427995440    5.68798452084147
H         7.34574839201787    2.57413216495382    6.87826050421108
C         4.80930969480017    3.29169234882271    7.91602075500367
H         4.01355326967861    3.61564215519549    8.57992763729519
H         5.65717705430151    2.97240009800745    8.52071190780902
H         4.46558250636269    2.42515940315256    7.35334611795632
C         5.23023415731837    6.64724672366372    1.73768079916758
C         5.81795538418885    7.66431062260615    0.95272172558838
C         7.12238479815264    7.44856666612037    0.41997868890604
H         7.53367005332040    8.19291428443466   -0.25509994982826
C         7.85808428541392    6.28449399471542    0.67749502554924
C         7.25377648367556    5.24681196927846    1.46932336758577
C         5.95731058888942    5.44183790135266    1.95864280978770
H         5.46369837736074    4.63070758919287    2.48432762621286
C         3.82540453661719    6.78018767026986    2.24442802095740
H         3.67882200300666    7.72388849905213    2.77067944059450
H         3.57360713959187    5.96442460158417    2.91858281205354
H         3.12755980291681    6.76135087976474    1.40627265156989
C         5.05490354350919    8.90665421682293    0.60324547954001
H         4.18378006236286    8.64879465840889    0.00000711805261
H         5.67326450438761    9.59758842847299    0.03531055037331
H         4.69611752859083    9.41741724967776    1.49762983386243
C         9.22086629369444    6.08845629663807    0.09068039449015
H         9.24501154827029    5.19166424807634   -0.52725776082675
H         9.95649748145271    5.96653884085894    0.88730060300307
H         9.50976988934182    6.94023792804946   -0.52018356079606
C         7.97993042630499    3.95927352078534    1.70321566650805
H         7.38383093538316    3.27993431950157    2.30779790425141
H         8.92723674492793    4.14757938132317    2.20996779711417
H         8.20330265084670    3.47371277652699    0.75366607197884
Cl        9.33894628867762    6.87194192457870    3.62909660696786
N         7.52599473887356    9.16943325688034    3.08100820810646
N         6.38115814652126    7.46320823376073    4.45166175633614
N         4.41691925060312    7.89124388040749    6.35754365359477
N         3.97260221383441   10.79007398469991    4.50130934515737
Ru        7.23352198169813    7.26298555794298    2.70587165415874

