55
CSD_code = PIFDUD | q = 0 | S = 0 | Stoichiometry = C26H24Cl2NiP2 | MND = 4
Ni        0.84999623294203    3.24989266837282    3.18293082178684
Cl       -0.84475124263764    3.48313564497201    4.42185107767576
Cl        2.40949384591440    3.88802317927564    4.43728731389787
P        -0.63546190216037    2.65821755256329    1.79946050333057
P         2.32405858881808    2.84230818673031    1.71833686008720
C         0.18436642232106    1.89403141130084    0.29965183159036
C         1.48633846545363    2.64762598468412    0.06413395003570
C        -2.22171852892327    4.24887816873629    0.10467870187907
C        -2.59693111661598    5.45957048018540   -0.44768276103288
C        -1.98488050692647    6.63394016906827   -0.03593863628793
C        -0.99499758134062    6.60320795343911    0.93290939594137
C        -0.61895058108238    5.39516478089264    1.49112064145831
C        -1.23123983179561    4.21520868689153    1.08105551195015
C        -3.28836690388929    2.27894423933926    2.48833455731422
C        -4.41305798558695    1.52237493695101    2.75673157595510
C        -4.37306789391142    0.14367772162208    2.62188669481993
C        -3.20060840730989   -0.48055698156310    2.22944449345782
C        -2.07055636899162    0.27028437701601    1.96028467006067
C        -2.11584654100378    1.65635783625214    2.06845578673837
C         4.93990057227996    3.45791324846028    2.27880030411540
C         6.15604719201559    4.08285056146496    2.08166564613761
C         6.34234389241260    4.91040555887768    0.98542082028657
C         5.30606696902161    5.12036319647980    0.09087596181734
C         4.08338134343994    4.50197676389508    0.28376365806148
C         3.90119292585161    3.65473535253023    1.37117010057939
C         2.15809086341189    0.46419122225047    3.10872004978425
C         2.45255546515889   -0.85936968902251    3.38098797545239
C         3.39342659527961   -1.52577399568038    2.61265356610249
C         4.04211633982079   -0.87004603080060    1.57699078965174
C         3.74941409411662    0.45247459561776    1.29982415275156
C         2.80129712757854    1.12289899468205    2.06564869305606
H        -0.47808233509322    1.93531262503151   -0.56888621964148
H         0.40202691807483    0.84588278025436    0.52454364660861
H         2.13997607980761    2.13113160886849   -0.64383596624626
H         1.26705463952055    3.64894735832737   -0.32045501128805
H        -2.70085230797844    3.33074314400532   -0.20856567286300
H        -3.37069825259807    5.48976847834037   -1.20095714806251
H        -2.28505051242486    7.57626817773994   -0.46979521955374
H        -0.52152601258618    7.51833108701151    1.25560419317630
H         0.14807947517234    5.35984881248575    2.27118787525414
H        -3.30415488962552    3.35167336366020    2.61586920960310
H        -5.32145300896143    2.00805599375046    3.08060430033794
H        -5.25217683636184   -0.44618075704078    2.83514214702036
H        -3.16349246472356   -1.55662259291869    2.14129266398254
H        -1.15210103783627   -0.22523679276287    1.67752991656604
H         4.77568389197385    2.82780737767915    3.14122040294775
H         6.95919168416527    3.92980976930654    2.78680826482321
H         7.29298046148037    5.39939422448630    0.83212590468864
H         5.44779311228495    5.77358081374980   -0.75792717100827
H         3.27601967976251    4.68328172150173   -0.41119174604418
H         1.43332651017713    1.00896046200715    3.72300765838439
H         1.95442999632380   -1.36816853454502    4.19270739279201
H         3.62860915794293   -2.55825762064369    2.82474664677177
H         4.78020060866334   -1.39257189988815    0.98611052522327
H         4.25936389918941    0.97183362407392    0.49945869809162

