95
CSD_code = PIFJIX | q = 0 | S = 0 | Stoichiometry = C20H60N8P2Si4Zn | MND = 3
Zn        8.15538716832009    2.02962998436897    3.75719101843356
P         7.10691016175124   -0.31995390484402    2.79661629393533
Si        4.91516381932807    1.72178697029181    3.07541455339450
Si        8.78912989809582    4.77570601358562    2.38003248402734
N         8.15535690948629   -1.07128705100030    3.75719897234566
N         6.48913961786536    1.03995733577510    3.37495950664592
N         7.84259880859256   -0.00434917799256    1.31566887890324
N         5.88437715174524   -1.45017983588813    2.46300040535374
N         8.15537603615038    3.95325304908450    3.75719090790751
C         9.09615466432240   -0.59515828373952    0.91239042055206
C         7.01317366144439    0.44412482895436    0.22057878154420
C         6.32951901269362   -2.63807679813824    1.75961409205303
C         5.06570095456209   -1.80017474188878    3.60658840023249
C         3.64922650112226    0.67818884452434    2.08008178227014
C         4.15807524438635    2.01708639388509    4.81029984155647
C         5.10642872800599    3.35467141422123    2.10928559294324
C         7.70345235471901    6.23774273425064    1.79221835060001
C        10.53442191009979    5.52983970079164    2.62027752265688
C         8.87822366489710    3.48417545696215    0.97549125133340
H         9.58875336972146   -0.99232588599797    1.79692288909725
H         9.73826196247226    0.16782969072049    0.46198873333938
H         8.95819224668428   -1.40334887059486    0.18202328557359
H         6.12264846076912    0.91343903945068    0.62991953339598
H         6.71192065188708   -0.38299384802332   -0.43563313036198
H         7.56084832074906    1.17590700305240   -0.37875317121923
H         6.94817182272033   -2.35623546664467    0.91235797765238
H         5.45190255926786   -3.17546133212331    1.39086857407126
H         6.90651578495258   -3.31193472327742    2.40395337732225
H         4.86613728716125   -0.90058821479183    4.18235305012982
H         5.55746856662558   -2.54030781740915    4.25027807690818
H         4.12032362625929   -2.22060472194365    3.25495851586102
H         2.96659158278940    0.15236962820227    2.73877884479091
H         4.11903628627214   -0.06001369987721    1.44135303436539
H         3.04990044796816    1.33119574538178    1.45308999652248
H         4.85687684911914    2.54008819335045    5.45386252385204
H         3.88455720804532    1.08885540921758    5.30567020925512
H         3.25864604145432    2.61929222335118    4.73278221007509
H         5.96746380743968    3.90204676438704    2.47418953063569
H         4.22760282889446    3.97888820745210    2.23371128845053
H         5.24066731469630    3.19256192122455    1.04329677143713
H         6.68357811191897    5.94318434815258    1.57239496705105
H         8.11835750000760    6.68356982073643    0.89368079457279
H         7.66652929129044    7.01053504561290    2.55177076054654
H        11.27731695450435    4.78017982901701    2.86584959143301
H        10.53124145910528    6.26223042436916    3.41970008844739
H        10.85879918203304    6.03721243225520    1.71610689921707
H         8.94974561603896    2.48676534738906    1.41018541843963
H         9.73687291078740    3.63600100779716    0.32945913818714
H         7.98997309906888    3.51579944835419    0.35428104513866
N         9.82160494224918    1.03993762726898    4.13946622401665
P         9.20381322993410   -0.31997489903683    4.71778928429073
Si        7.52162910147925    4.77570280533701    5.13435453185143
Si       11.39556602236392    1.72176742629181    4.43910577207084
N         8.46814070924429   -0.00441559389291    6.19875000280447
N        10.42633218241424   -1.45022032651253    5.05138572721457
C         8.60728278559137    6.23777122679149    5.72213464990174
C         5.77632163295655    5.52980576310674    4.89412218495210
C         7.43259957403463    3.48418501665974    6.53890678904671
C        12.66143807523385    0.67815229724260    5.43450764500761
C        12.15277204560617    2.01708993796203    2.70427343797922
C        11.20425063332331    3.35465181270028    5.40522181011895
C         7.21450519223793   -0.59508390944586    6.60197877126056
C         9.29755251270937    0.44402823236513    7.29386121294986
C         9.98115390866860   -2.63814164611210    5.75470553285927
C        11.24505353780729   -1.80016127764248    3.90781339979394
H         9.62718146890076    5.94324914735277    5.94189305515001
H         8.19241088038328    6.68355973478026    6.62070641966807
H         8.64413198355726    7.01058429319469    4.96259965406549
H         5.03340631702624    4.78010986913345    4.64872409649128
H         5.77944124591271    6.26207036519874    4.09458338667964
H         5.45201687266269    6.03732074812265    5.79823915142684
H         7.36128450152867    2.48675573393081    6.10420921308178
H         6.57385029467384    3.63588015573070    7.18484367364382
H         8.32077805197274    3.51595653201272    7.16021917561647
H        13.34427958020523    0.15254520277436    4.77580116239847
H        12.19157916778299   -0.06025553386560    6.07301490616845
H        13.26055657376502    1.33115740424305    6.06174343745197
H        11.45401497923299    2.54009188834714    2.06066043585934
H        12.42633935641584    1.08886712366935    2.20891194748869
H        13.05218983933518    2.61930472277315    2.78186185050534
H        10.34330422857456    3.90208212189380    5.04019382673316
H        12.08313508629650    3.97881488848759    5.28093967551188
H        11.06983325940719    3.19253584281261    6.47118589978785
H         6.72188940800874   -0.99218186241698    5.71742431372852
H         6.57246951078222    0.16796951202342    7.05237196889516
H         7.35235697991347   -1.40330154211391    7.33233719206324
H        10.18814635406719    0.91324361266671    6.88454745883063
H         9.59869266037565   -0.38310098595868    7.95011774614647
H         8.74991647867863    1.17588528126861    7.89314059339061
H         9.36247327322993   -2.35632504754552    6.60195070194980
H        10.85875033446886   -3.17555262221005    6.12345857501085
H         9.40417039695177   -3.31196484912749    5.11031786678862
H        11.44458898781666   -0.90055564467383    3.33206687267963
H        10.75333600705144   -2.54030718784644    3.26410004339304
H        12.19044241686772   -2.22055327973354    4.25945884241020

