57
CSD_code = PIFNAV | q = 0 | S = 0 | Stoichiometry = C24H24N6O2Pd | MND = 4
Pd        8.98800592097443    3.37723251192883    7.11263321382886
N         8.16691414508889    0.69243793230871    6.44744268941620
N        10.05067846109424    5.08155645390930    6.68629997256928
N        10.23205530527499    3.18013091701681    9.94115866855855
C        10.90347970595716    4.88789480664694    5.60313769664905
N         9.44353373478471    5.10116091655129    9.38177651257637
C         9.54616628820428    3.82283579540994    8.97621214579840
C        10.55709701625426    4.05491949826763   10.94593512787503
H        11.10594192440909    3.75391201838176   11.81411655452414
C         7.95257570701151    1.68498556276837    7.32946433835936
C        10.06595254746552    5.26672716304804   10.58630311889905
H        10.11397560935105    6.21218803629892   11.08598003252049
C         9.85276302129512    6.25881367067359    7.25556963483408
C         8.92766357183609    6.13452416172061    8.52553965738663
H         8.92514694913980    7.09055692337616    9.04985745160638
H         7.90960777547789    5.88131260543702    8.19969535219719
O        10.32744121954647    7.35078358209622    6.98400744850564
N         8.47520643629797    3.11036095070742    5.14228059626185
O         8.56503786577706    1.79584156138491    3.25049084484628
N         6.88141437990729    1.31211785063210    8.05631569826895
C         7.19007438181724    5.09528397071209    5.38604640720229
H         6.90577883582282    4.72084892162627    6.38138017291122
C         8.70325663876468    2.00988094105143    4.44494852088455
C         9.12303200433152    0.81295045416234    5.38039494742531
H         9.14209026387986   -0.10219701697139    4.78796707910298
H        10.12164130721457    1.01693849228874    5.79008004786330
C         7.23552634163739   -0.29359471487417    6.60921919578970
H         7.21564016684215   -1.17392567948983    6.00050682900083
C         8.00453268866267    4.29222654244139    4.57727798208377
C        10.60709705526827    1.79329095456340    9.89334330074935
H        10.26918494219558    1.38324646858405    8.93559209888697
H        10.14469694908242    1.23848136149008   10.71255487288579
H        11.69095737462967    1.69066702019912    9.96539797930108
C         6.42855173915656    0.09021027099732    7.62931043367941
H         5.58212598250790   -0.39453463709789    8.06992361322290
C        11.55096328678894    3.64830779366932    5.52718077530229
H        11.41422237903770    2.93243229385990    6.35228456913325
C        11.11343289641432    5.82481296747268    4.59251729208672
H        10.62259393654898    6.78282667867815    4.65027291509865
C         6.28216652781715    2.10523305000191    9.09460637857035
H         6.80361651655161    3.06787930389089    9.13003972053363
H         6.37074663134669    1.60734999406297   10.06258740963309
H         5.22621118615217    2.27476422279960    8.88105322175449
C         8.32492232505086    4.72961216123318    3.29302816709054
H         8.94629993760183    4.11209227701700    2.66485698202890
C         6.73439262768688    6.31594598141411    4.93216078668663
H         6.11385969789914    6.93294895104991    5.56769606343043
C         7.85864900410459    5.95187718504581    2.84774848161115
H         8.12242416527742    6.28933155084413    1.85574568831257
C         7.07196627404159    6.75106877382910    3.66008795860550
H         6.72259946274360    7.71016384830257    3.30730397081067
C        12.36303229382001    3.34429908651734    4.45372774458219
H        12.85187627906025    2.38106303792623    4.39960082348632
C        12.55264953036014    4.27506868688694    3.44431028196341
H        13.18119011665278    4.03478441985356    2.59959104381432
C        11.93210309502891    5.51053800048439    3.52459650444098
H        12.07923757311441    6.23713346679667    2.73854298473794

