47
CSD_code = PIFPEZ | q = 0 | S = 0 | Stoichiometry = C12H27O2P3S2W | MND = 7
W         8.77326476249916    3.35827465295849    3.50580185145645
S         6.64981476352932    4.67803635685719    4.51418038720032
P         5.58072951352915    2.93288976459507    2.45984214742293
S         7.14269710010051    1.61742587449981    4.60119275874956
P         9.50690528427969    3.87305963673204    5.79308961446842
P        10.44933996183808    1.68561348418590    3.05609983459368
C         8.32137069773473    3.18648004051846    1.62119451624607
O         8.21464758355045    3.18378232367415    0.46090319765526
C         9.86881304878677    4.76630923317506    2.70561048596553
O        10.44327220215291    5.59124412310858    2.13677505699298
C         6.66624100837735    3.08451034338113    3.86483049214216
C         8.54376545668211    3.24711197920941    7.21417765599654
C         9.49250598702919    5.67252757311667    6.11634503150750
C        11.21536187048540    3.51249695158855    6.36329504187371
C        10.48695325941131    0.27897872039004    4.22624207432359
C        12.21218865868720    2.17147360395876    2.95943408475966
C        10.26778874043624    0.78250043948732    1.47756017705577
C         5.79094258797258    1.38841194723295    1.53050055787905
C         5.53913161702831    4.40004619061627    1.39677886185632
C         3.90719630478123    2.80503294185994    3.16646775969503
H         7.50410640672999    3.55183426605348    7.09070306438288
H         8.93784287608691    3.64833999667887    8.14897017930479
H         8.58585603640700    2.15770049801099    7.22626110792532
H         9.85449641846468    5.88448972651168    7.12340497331896
H         8.47914038663829    6.05365847237940    6.00049328376374
H        10.13378770567340    6.15984193403050    5.38139288679067
H        11.40774599485397    2.44148874398287    6.34739298795496
H        11.35729574201063    3.88669214395712    7.37776857058543
H        11.91485879655444    4.01161912694924    5.69341826544659
H        10.68570543509598    0.64376862238180    5.23174362922374
H        11.24471947128797   -0.45006608627646    3.93874653585396
H         9.50107053079613   -0.18525272811142    4.22182616604820
H        12.83138285017338    1.31474878117063    2.69266149201515
H        12.53456481080834    2.57667259006982    3.91598811051725
H        12.30317427108499    2.94802745102324    2.20002172831765
H         9.27887261762034    0.32706823220570    1.44937472731582
H        11.03255646264325    0.01082063158401    1.38359479691345
H        10.35320835806618    1.49210025938510    0.65654570031264
H         6.18690635212500    0.64977672304110    2.23364410915371
H         6.49076572541469    1.52992348396357    0.70978053142881
H         4.82410822131424    1.06024828007305    1.15039719377320
H         6.00789626375830    4.17913472674271    0.43963415081459
H         6.10175218152899    5.18906122098929    1.90435066590425
H         4.50686717522408    4.71614226693560    1.25246504325211
H         3.72403323006015    3.70060983166145    3.76315811013235
H         3.87228571666670    1.92827773226839    3.81543034903091
H         3.15856955402630    2.71846689120225    2.37971005269106

