51
CSD_code = PIFRUS | q = 0 | S = 0 | Stoichiometry = C10H22LaN3O15 | MND = 12
La        6.54775950903489    9.32574666436128   19.59982256623084
O         7.67963538069772    8.09425277792550   21.65350359850911
O         7.10995708404521   10.85473104913287   22.02812585710348
O         5.11832666372142   11.82596205434391   20.22628813670458
O         5.35129865245118   10.73129272540467   17.56230860451619
O         7.90467777226650    9.59055457507194   17.10870828544724
O         8.42594156193774    7.38508317440976   18.86894954309427
O         5.78315688811821    7.15501235944583   19.87551884664550
O         5.88931497327989    7.91292152864994   17.90151283677347
O         4.55504394323253    6.33168463963303   18.35512820193258
O         7.47015819687215   11.40488149768934   19.22100909873530
O         8.78891268754000    9.92003429054712   19.93610678057800
O         9.32211255930720   11.96783551632936   20.07747324432380
O         4.24623862794209    9.26451997538721   19.57589735478956
O         5.15985616014438    9.20925207772337   21.48169476433998
O         3.11218582738881    9.71456059915729   21.31176650309164
N         5.37154124665616    7.13003102307200   18.70856031161542
N         8.54253500670798   11.11235619203066   19.76122974488945
N         4.14853347367977    9.40634189830510   20.79808677444954
C         8.34350223214527    8.87540079552510   22.62488844592914
C         7.47398163095678   10.02855240817988   23.12628561043986
C         6.12730268123821   11.80453681668948   22.41032958029916
C         5.73198256275658   12.64762763902097   21.20717274151178
C         4.77749833534701   12.58022437168274   19.07203077492030
C         4.33258436932571   11.63004290142979   17.95831904230803
C         6.24302275401962   11.24584075884103   16.58750073335921
C         7.07322663234592   10.07835008404408   16.06883859677978
C         8.64139221884262    8.45258929065476   16.69031912428576
C         9.34811519922049    7.84812225109638   17.90460532262961
H         6.89438582106746    7.69611510150342   22.06059986632208
H         8.00623846556759    6.58358757392279   18.52632371056282
H         8.64569083116281    8.26027183400076   23.48356007468917
H         9.23165739914537    9.26895017965578   22.12586762865922
H         8.02633893033581   10.62274705993680   23.86923471738087
H         6.56287706979378    9.62536217832875   23.59148697810408
H         5.24116718091141   11.28645946102890   22.80147303843775
H         6.53393721408445   12.46541774455209   23.19021850684372
H         6.62711143504828   13.12435933326215   20.78522976990919
H         5.02679706093538   13.42654763668272   21.53311445654576
H         3.95740974719762   13.27326860556448   19.31282435749721
H         5.65221908614969   13.15829016859499   18.74598954081286
H         3.98273254533565   12.21852264082358   17.09977061273321
H         3.51977217445232   11.00041695317711   18.32906113467076
H         5.67538891932254   11.68115433396823   15.75186460118196
H         6.90555314756810   12.00520734384110   17.01938818705680
H         7.69300444174780   10.40937603987177   15.22145541830518
H         6.39119297258635    9.28185849758452   15.74236873444612
H         9.38206301244898    8.74464489861290   15.93017299371326
H         7.95417802589910    7.71218142152577   16.25421624711241
H         9.93180357553186    8.61930913941068   18.41073482259503
H        10.01328611248640    7.04030991836713   17.57416357618760

