99
CSD_code = PIFSEE | q = 0 | S = 0 | Stoichiometry = C44H49N5Ti | MND = 5
Ti        4.04370914920271    9.31039567830531    2.73929341984578
N         5.25993998229346    9.67823477935158    1.07932376473798
N         2.37555354058404    8.50816295826884    3.58162816070581
N         2.35306616364070    9.24352865832505    1.47486704994970
N         5.39086106491007    8.54510039644073    3.84522625729471
N         4.06367602805664   10.92686442459815    3.29930178218484
C         6.43479620311490    9.06164873904953    0.91958893160089
H         6.71851242835004    8.34865274835672    1.68843577959000
C         7.27967135713029    9.31612018320263   -0.14845207057580
H         8.22169486140887    8.79600141116497   -0.22749863875695
C         6.89365100387162   10.24257041321028   -1.10536390376298
H         7.52627273059796   10.46207254088852   -1.95180687263838
C         5.67332167832083   10.88456921877129   -0.94004437713144
H         5.32993555433381   11.61694909639321   -1.65325254981202
C         4.89738464573419   10.57967819254145    0.16512675549036
H         3.95301695115533   11.08383753084495    0.33393845160599
C         1.61199519868841    8.88628834986133    2.51509135772565
C         1.79944026926340    9.73421331522127    0.28695608866227
C         1.88361957725556    8.95602177097668   -0.87700407453379
C         1.39594003021563    9.45539443835914   -2.07334753812989
H         1.45936575481828    8.84256145606526   -2.96249980946610
C         0.82620746103360   10.71700616304575   -2.15470670768674
C         0.76967075992777   11.48836477506374   -1.00188073767486
H         0.34385494590497   12.48140910016262   -1.05134303108227
C         1.24558164080602   11.02318099275195    0.21246002262648
C         1.21830221667138   11.89174696703727    1.43255412720058
H         1.08463035679336   12.93609735862885    1.15865989192203
H         2.15218366484966   11.77692758755254    1.99326718520838
H         0.39852311168625   11.60274970908423    2.09170420791764
C         0.27544691876226   11.23975059500996   -3.44789792714835
H        -0.81437845163053   11.20519581098931   -3.43391137354326
H         0.62353261472304   10.64417568677117   -4.28843653925279
H         0.57261473289675   12.27537982202671   -3.60339782351326
C         2.51909850179994    7.59773374029441   -0.81669938658131
H         3.59372859206648    7.69429585710129   -0.63917062834392
H         2.37131873780718    7.06017863613923   -1.75050341153457
H         2.09320292805157    7.01118964876340   -0.00265939167112
C         0.19603991548653    8.79553758293823    2.59197556886389
H        -0.39980434992800    9.10159419933458    1.74458267081133
C        -0.36787589683135    8.30343158668823    3.73902370894418
H        -1.44328722182192    8.23216809668745    3.82664980174939
C         0.44217863798935    7.85293083153864    4.78738647972412
H         0.01155970549524    7.41516651782570    5.67345486816981
C         1.81727916980013    7.95904237868343    4.66132975801671
C         2.73671496762722    7.36637965684202    5.66901571820595
C         3.41246370698497    8.16516954055547    6.59279330019331
C         4.23262229638846    7.56313492099253    7.53473650225135
H         4.73492822175181    8.18063395225913    8.26727040714188
C         4.42673913948092    6.19007177797952    7.55597156396869
C         5.31691287906495    5.55207810371708    8.57830666176125
H         6.02800226686899    6.27135202201130    8.97692676882119
H         5.86233521912313    4.71918157637449    8.14089502229818
H         4.72122198624759    5.16711410333180    9.40685943182171
C         3.76575666520370    5.41508741098655    6.61645802981711
H         3.91595100743988    4.34498352401283    6.61108096671937
C         2.91688715497254    5.98181588119902    5.67771034954496
C         2.20046215477201    5.09252860297988    4.70306015005835
H         2.80760066862072    4.21891453945220    4.47661484437582
H         1.97434105134399    5.61843013353652    3.77837599756427
H         1.25774130787992    4.74908059421753    5.13144590958671
C         3.24309243248197    9.65254398274030    6.55925585028298
H         3.59772490281722   10.04060209051741    5.59723204337317
H         3.80143937669121   10.12888957404620    7.36199608591730
H         2.19072312584145    9.91451466815216    6.66349645150031
C         5.77244409865250    7.25587324162520    4.05038151113380
C         5.32004127697505    6.21565015475696    3.20557367511347
C         5.69605205183488    4.90605609874467    3.45107185573465
H         5.32630671460570    4.12638386998823    2.79734071476449
C         6.53293734179067    4.58063055439176    4.50148876990271
H         6.81225157401670    3.55360637766637    4.68322659092803
C         7.02406964006079    5.59689598158110    5.30457535534927
H         7.70487548510325    5.35694279486561    6.10999384186319
C         6.66983796333811    6.91432648954208    5.09713898270512
C         7.25764344792455    7.99202955343134    5.96602323656354
H         7.92308794381442    7.55244455627977    6.70516595696545
H         6.47784640013963    8.54171942951118    6.49410380332828
H         7.83413282916953    8.70408204871767    5.37063496273963
C         4.45364020726075    6.50456140002619    2.00755067751462
H         3.65336607473454    5.76591846015402    1.93362025191155
H         5.04366777208130    6.43414477016244    1.08610430352762
H         4.01083560267007    7.50754524961461    2.07335058867410
C         4.34438708591425   12.06847322384860    3.92060707520653
C         3.36355299301861   12.78009563709595    4.66994611279847
C         3.69667493983485   13.96016198129597    5.30579553488561
H         2.93384481765291   14.47855748253835    5.87194985836234
C         4.97386732589301   14.48924903023185    5.23321035240008
H         5.21504500367230   15.41278869318837    5.73786772395495
C         5.93887232078001   13.81561127787474    4.50083749228033
H         6.93968054929739   14.22275688967681    4.43467210781384
C         5.65340072684968   12.63242709607769    3.85221253177093
C         6.71083803974221   11.93220243689929    3.04549918572012
H         6.56177804989596   12.12301331120804    1.97873151505429
H         6.65347687730601   10.85083290711184    3.20521841397024
H         7.70115876359008   12.29044663897377    3.32083420020970
C         1.95583125017817   12.25946809655030    4.77704438863612
H         1.63936912323359   12.23237316471436    5.81926967745107
H         1.88639778059377   11.25550428868162    4.35404363244938
H         1.26994411611027   12.91675778346168    4.24106863372823
H         5.76525041549645    9.14944242936680    4.57439513173440

