57
CSD_code = PIFTED | q = 0 | S = 0 | Stoichiometry = C26H20MoN4O6 | MND = 8
Mo        4.16408697567965   -0.42947497889833    3.45131912667258
O         3.68829626526910    2.03145072828265    1.63467728201066
O         1.11146197667903   -0.92963432121572    3.33308328322003
O         2.71265223313665   -0.40074452995976   -0.26019088835234
O         3.28916911091066   -3.95390543347772    2.56677221029274
O         1.43241311511178    2.16719163686767    4.55075123669911
O         5.97551070745498    2.52315624623334    4.97240116373190
N         4.34336064259170   -2.05400339491733    4.70177330230960
N         6.18954569797362   -0.09441576479908    3.45280838006987
N         2.66055988584666   -2.29535079912447    1.06762679486774
N         3.68481488146942    2.69184719850893    4.64506962017455
C         3.88825996500337    1.16384616115464    2.34794573157302
C         2.24317144095569   -0.78436302223459    3.33650639980617
C         4.23958140859654   -3.11661241146477    5.12672587520693
C         4.10041791446009   -4.44698018064565    5.62728801500695
C         7.21980217504163    0.40110788088132    3.57274459279584
C         8.48494120360136    1.04440430085081    3.73523624839416
C         4.52104492336047   -0.93765848456367    1.25650674820861
C         4.72147387020424   -2.08170121432888    2.07242311398338
C         3.09095953258015    0.53010559464740    5.21295160475834
C         4.49586456094990    0.66394026735940    5.36606019029522
C         3.21542217301968   -1.10400373920098    0.58130307043048
C         3.51831920700863   -2.92148237990685    1.96680362165857
C         2.57427201516118    1.84543365760217    4.76837161803280
C         4.86192291845680    2.03479865662619    4.98780871737401
C         1.37369875634721   -2.77232901021938    0.71892393324577
C         0.32802655201786   -1.87869191294509    0.51968769409532
C        -0.92313815929716   -2.35782564710474    0.17705096515592
C        -1.14124804745609   -3.71811074547025    0.04052836315533
C        -0.09696839643379   -4.60468789901893    0.24044910203727
C         1.16180047128257   -4.13815302047190    0.57251851101813
C         3.62217831279133    4.02365309329280    4.16968626975691
C         2.57759709275301    4.85064659799654    4.56463129454859
C         2.51918070734279    6.15017002583276    4.09511499937895
C         3.50056127908858    6.63352119291500    3.24672539850660
C         4.54300094962534    5.80826084512573    2.86104147891583
C         4.60633561602236    4.50340127809319    3.31386264318487
H         1.70317924486539    6.78879579780676    4.39893542917335
H         3.74776252746079   -5.06850044251187    4.80285204791710
H         3.36987844555181   -4.46780882345619    6.43512155321781
H         5.05726325158821   -4.82230722343587    5.98897306795437
H         9.18876062508443    0.38249653598855    4.23886162192453
H         8.88586475658738    1.33397587792859    2.76436795015137
H         8.32032529829395    1.93637574769376    4.34177875670490
H         5.31392343362977   -0.44909826644219    0.69301652890779
H         5.68297803523502   -2.57661663825689    2.20492337678054
H         2.46230794591146   -0.05483531345277    5.88163184883463
H         5.07325069368956    0.18103672502550    6.15356962442189
H         0.49413348899414   -0.81890377437275    0.62325117522938
H        -1.73297944368945   -1.66097754188301    0.02193717733479
H        -2.12175196316888   -4.08655470012496   -0.22244463239884
H        -0.25895322056786   -5.66704409173222    0.13173494566399
H         1.97611698776728   -4.82759957725882    0.72690205049652
H         1.81278086455942    4.47198258004685    5.22278592148605
H         3.45258305404884    7.65014879146503    2.88568243775522
H         5.30947110628555    6.17868300785235    2.19646378852635
H         5.41685493324481    3.85984485682417    3.01086761767020

