75
CSD_code = PIFXEJ | q = 1 | S = 0 | Stoichiometry = C32H37AuClN4(1+) | MND = 4
C        19.93102957785032    9.51412672436805    8.00756860110157
H        20.28218897852592    9.09422282374163    8.94611920140466
H        18.88011028268563    9.76529317128051    8.12601527986614
H        20.48792009302536   10.42804850661532    7.81394048757964
C        15.77353243978665   16.37883127579043   -1.56364851368391
C        15.36005947415390   16.22196188353724   -2.88227879764280
H        15.13248351551830   15.24607762599869   -3.27756301223393
C        15.25905453055620   17.36344473187837   -3.64706619719860
H        14.94182802266179   17.28175533591730   -4.67446246683267
C        15.55795972685457   18.62827257567286   -3.12944971071173
H        15.46652198732982   19.49160267381949   -3.76954828823150
C        15.96736773598938   18.79853241265221   -1.82413745380524
H        16.19998563053850   19.77719784896688   -1.43625854820256
C        16.07101419476242   17.65579118467243   -1.04074367112807
C        16.38616881443904   16.15961315155172    0.53365933891355
C        16.66204203624165   15.37237780957609    1.71971551265351
C        16.40317772557179   14.02801541127871    1.48135829417018
C        16.57145668239721   13.02506687197862    2.42842492079014
C        17.04407525823201   13.39734459758171    3.68907352596550
H        17.21974600409046   12.67246181461850    4.46613081615988
C        17.31367968510525   14.73465910335645    3.93926544496009
H        17.68374511250063   15.01502700213416    4.91358815402948
C        17.13443966744205   15.72603819289577    2.98591523735565
H        17.37920774541691   16.74425421411229    3.23737982361344
C        16.22482697504236   11.73418604246183    1.86671573805689
C        15.59880568041914   10.43071154856099    0.21404417563591
C        15.20442316220271    9.85708062500469   -0.99001424818376
H        15.04959721259099   10.46373871716669   -1.86653382819233
C        15.02557352458712    8.49107158551422   -1.00411345116261
H        14.72121823066694    8.01001634562655   -1.91999522137390
C        15.22991636983568    7.70756169650662    0.13663532313272
H        15.08090214105300    6.64117742467325    0.07345078509802
C        15.61892846409374    8.26307004682267    1.33692234985799
H        15.77950069184019    7.64997276554267    2.20902755527793
C        15.80078177935076    9.64010101632563    1.36571463679550
C        16.86264948067879   18.53359598067926    1.16040783430238
H        16.49512395018965   18.32274914585773    2.16519172527712
H        16.39834471119621   19.46050139893665    0.81827799979063
C        18.38775270365566   18.68018889837679    1.14240599242881
H        18.69861466922084   18.90205023120600    0.11932065001207
H        18.84820063733714   17.73187903066217    1.43009301169462
C        18.87792925064402   19.79133522633094    2.07104232264103
H        18.33388954567437   20.71285175068920    1.85604820323898
H        19.93129380522466   19.97515630864873    1.85352742848885
C        18.74244993432352   19.45280855279745    3.55440872931578
H        17.68920688397793   19.33959639201028    3.82301381113643
H        19.25015392613125   18.50566012984650    3.75654093759601
C        19.35322548404656   20.53965788518856    4.43759603308526
H        18.84877649441264   21.48755783307164    4.24161959154164
H        20.40594829834480   20.66473834370608    4.17800405567098
C        19.23448959306264   20.19830977212618    5.91738856367363
H        18.19095734053033   20.08806549268639    6.20455064820967
H        19.67327347171384   20.98565141436731    6.52381075266996
H        19.75300414872296   19.26800363108682    6.13909596737571
C        16.48655451031375   10.07762480025649    3.72608494794420
H        15.92148103346761    9.16491500964936    3.92680782937092
H        16.14424571431839   10.84390112993592    4.42465482350952
C        17.98364642496581    9.80770501590063    3.89962128842617
H        18.54948439398388   10.71194383521510    3.66211161856548
H        18.28904205906525    9.03248961317694    3.19366620189861
C        18.30288608399330    9.35766560947378    5.32369589216284
H        17.99074627809846   10.13243253577580    6.02577034076079
H        17.73702473335748    8.45247691724050    5.55308544472343
C        19.79398045761332    9.07424553090913    5.49840973946574
H        20.36013468444369    9.99328349898070    5.33167318646649
H        20.10449288921345    8.35241975828338    4.73984985771618
C        20.13882993443519    8.51275623795950    6.87797814938367
H        19.53668800799097    7.62194559210165    7.06605294330760
H        21.18616792212814    8.20596120926144    6.86988390082891
N        15.98025318944917   15.47262961001659   -0.55440655926547
N        16.43648481751185   17.47518682881077    0.27721454506085
N        15.86890878394991   11.72928035283536    0.56523287590766
N        16.17566559510420   10.49628596321184    2.38057973507601
Cl       15.15942132398914   12.90808150911867   -2.39378657255764
Au       15.82690768016550   13.51270726541362   -0.29927624073840

