75
CSD_code = PIFXAF | q = 1 | S = 0 | Stoichiometry = C32H37AuClN4(1+) | MND = 4
Au        3.46140999721521   25.95578785163070    7.03292046739934
Cl        3.79224210245934   27.74046556167016    8.41107430476226
N         2.19221630449235   24.90865627907506    8.13865201925001
N         0.91720412804882   23.11503172523703    8.40175574560698
N         4.63633753186563   26.48248377453520    5.52511989729100
N         5.45789347144042   26.06118784521447    3.51056931965563
C         1.56248562256551   25.04249467967405    9.35000588206940
C         1.61601345207672   26.04134949868601   10.31649336085170
H         2.23683247164027   26.91063759344195   10.17787742677276
C         0.84450251020194   25.86434007753632   11.44380573798550
H         0.85987277558758   26.61724799397088   12.21563476786227
C         0.03882252475447   24.73365754391835   11.61583029777809
H        -0.54762579326587   24.64035247217559   12.51622567199546
C        -0.02382758553861   23.73674804169474   10.66611674646427
H        -0.64584536717729   22.86884666986175   10.81261435445423
C         0.75120573445713   23.90030485354315    9.52418517517912
C         0.30017868200648   21.82609121663519    8.19495086922878
H        -0.04095181372602   21.76349694485169    7.15888724387842
H        -0.57621682191640   21.77257497985516    8.84308296099130
C         1.26010164937179   20.67800951084923    8.52617481236287
H         2.18117992079118   20.79273432579671    7.94985708970535
H         0.78722592197051   19.74285883149678    8.22194436646695
C         1.60146617767882   20.61032185293143   10.01338458140116
H         2.06002141384439   21.54935088316504   10.33357469432888
H         0.68493361930980   20.47274117468023   10.59089719514850
C         2.55844625585990   19.45996346459567   10.31949717752739
H         3.48114900764717   19.59313215490808    9.74971802049476
H         2.10594301688139   18.51843941921186   10.00143580994846
C         2.89243983590438   19.37912136601339   11.80742080511782
H         3.34665933895229   20.31980180172599   12.12712191966163
H         1.97039242826499   19.24627229126361   12.37707898150805
C         3.84287117034596   18.22801578289047   12.10985240399268
H         4.77689102098247   18.34890095396009   11.56575073235614
H         3.39801625489702   17.27884444897188   11.82033798278163
H         4.06785232259196   18.19039194203884   13.17229455393259
C         1.78906564848862   23.74088003720455    7.59652632240177
C         3.18842959306100   24.43157143224205    5.86210752391714
C         2.34175994112987   23.41817455105530    6.29522892702679
C         2.17357835244229   22.31326242842060    5.45719707537957
H         1.54020556552668   21.48556835361737    5.72879953297915
C         2.85110578282396   22.27551091069835    4.24754064471172
H         2.72050571872034   21.41602451804995    3.60815528522020
C         3.69405742110450   23.29420286556646    3.82917695154210
H         4.20326012541272   23.19847252779725    2.88512876362375
C         3.86904180350822   24.41029059379003    4.65080687138763
C         4.66876043556982   25.60975737428030    4.49693791810394
C         5.77489495795042   25.40445961041420    2.26543494623522
H         6.09929627450648   26.16980277762261    1.55806491919408
H         4.86835300997748   24.94311690765351    1.86708012914747
C         6.88124004904031   24.36173649969902    2.44949673830301
H         7.79182246525590   24.86228358940554    2.78457835017149
H         6.58864037411419   23.65337834134411    3.22868104300326
C         5.98292735484674   27.26978744594111    3.91896100866565
C         6.86054874582742   28.15357169047189    3.30333750459035
H         7.27861175387850   27.95471516186581    2.32971622781782
C         7.18253705237354   29.30139307001028    3.99565282593212
H         7.86150421012929   30.01171971494287    3.55083947027453
C         6.65288901115461   29.56883949528137    5.26252767199770
H         6.93429692418873   30.48125904014461    5.76376214594103
C         5.78423094158086   28.69999171717198    5.88586924176496
H         5.37499989280436   28.90171016510835    6.86164570209397
C         5.45089781063292   27.53741864776755    5.19892169292615
C         8.24005591707577   22.54711851739858    1.33401789973662
H         9.16218293684225   23.02457463517637    1.67131150209571
H         7.92932862912240   21.84336848313073    2.11003380827513
C         9.58714768370859   20.71799192918430    0.23569880118206
H         9.76691358535884   20.18535684853981   -0.69410849143172
H         9.27991603818588   19.99713372138909    0.98994442298660
H        10.52180520762749   21.17178503995648    0.55658004762963
C         8.51412985510480   21.78159301223480    0.04141752254563
H         8.83366337621590   22.48234337357101   -0.73237061525676
H         7.59121203166400   21.30831032933376   -0.30116949928026
C         7.15830407488361   23.60917898855944    1.15001348014680
H         7.47324173298662   24.31608794991202    0.38015502758746
H         6.24019843268633   23.13020189634879    0.80085728322720

