49
CSD_code = PIGBAL | q = 0 | S = 0 | Stoichiometry = C20H14F6N2NiO6 | MND = 6
Ni        4.62661560573941    1.89119524943587    8.04535477143486
F         9.06919769146913    1.56371753763490    9.46760204067979
F         8.63419939447680   -0.15049856142310    8.24313809920803
F         8.71420148427778   -0.34829043419382   10.38117987584904
O         4.17817770765638    0.64316710938692   11.92899109363078
O         6.30248095648457    1.13215266253505    8.34536706110289
O         5.23184389212884    3.87612048302144    9.33349508183778
H         5.77893936918924    4.39710211971804    8.73791304143904
H         4.37122489814921    4.30455993874381    9.38998912572445
N         3.96445217299510    1.12165811755707    9.75563146465458
C         2.69501255666165    1.03465892445336   10.29850310525451
C         2.84686352135778    0.75125355365098   11.66770137018573
C         1.77572174264827    0.59428348378981   12.52449419271855
H         1.92403765271567    0.38254148581433   13.57053492297289
C         0.51522345375387    0.70987132757430   11.96472123833083
H        -0.35371612207323    0.59685418896749   12.59415871239934
C         0.34657181254938    0.94916632091945   10.60285490145941
H        -0.65279506407325    1.00807276237630   10.20021324710305
C         1.42126703332671    1.10672536923058    9.74936167698439
H         1.28259982644612    1.26972742112497    8.69639316056798
C         4.79541902219453    0.85858577846859   10.75382805936700
C         6.19302452861991    0.68163733532415   10.67160321316631
H         6.72576920817926    0.41455390080584   11.56541227277835
C         6.81044261770571    0.78941278175639    9.45709806762755
C         8.30756962756451    0.45742157263136    9.39083610131339
F         0.18384994507183    2.21906394334120    6.62298753108208
F         0.61892932428967    3.93223914131463    7.84890552369666
F         0.53897323755269    4.13183231427026    5.71101577353117
O         5.07427903495022    3.13950519403489    4.16159132211635
O         2.95087561636726    2.65045745422881    7.74570467602046
O         4.02164842321308   -0.09373698383655    6.75690534813820
H         3.47527309317350   -0.61517499783505    7.35282299366428
H         4.88252033884306   -0.52148145492517    6.70006171359840
N         5.28856533262001    2.66047346730806    6.33478168945551
C         6.55785903854329    2.74729878778994    5.79152706698173
C         6.40564754088551    3.03111020515527    4.42245265699703
C         7.47654561102220    3.18804745944811    3.56534917894335
H         7.32793054939242    3.40004675204427    2.51940163342353
C         8.73719594532298    3.07197064528214    4.12467112703048
H         9.60596041941390    3.18498274550025    3.49499228077651
C         8.90622436538140    2.83219356425064    5.48640462111402
H         9.90570939689944    2.77302042258204    5.88872117100126
C         7.83176910967297    2.67469133767835    6.34021197680370
H         7.97073764203667    2.51131852288339    7.39308371122127
C         4.45735007019872    2.92393000361088    5.33688852104331
C         3.05978458798080    3.10103638218835    5.41948435901973
H         2.52684234079195    3.36821826156928    4.52582379045472
C         2.44264315741326    2.99323649850875    6.63412478314219
C         0.94554128882103    3.32526990430047    6.70071065295489

