41
CSD_code = PIGBAI | q = 1 | S = 0 | Stoichiometry = C10H24N4O2Re(1+) | MND = 6
Re       -0.00033054323006    8.53603736690811    2.73337360776901
N        -0.25492444224497    6.87077507680780    1.34656798039946
N         2.09669887176217    7.95052297905994    2.58146349165642
C         2.19736566113695    7.06779166339743    1.40380446387466
C         0.99994951443920    6.09645967958351    1.39214315829945
C        -1.48525779871519    6.13482568035606    1.66582295788662
C        -2.72944006622391    7.04416817707602    1.64954351564787
C         2.95522755275792    9.14205642222242    2.57633698424528
O         0.19871389111317    9.58304192253212    1.43986190185322
H        -0.34988850607939    7.27611421444575    0.41352084002861
H         2.30802907698367    7.39948006962764    3.41556394539189
H         2.15915171281188    7.70124019757393    0.51307112414322
H         3.13720883309382    6.50622875735732    1.40088968176212
H         0.99473715973721    5.51583810886825    2.31916995757769
H         1.07999764175938    5.40985251015992    0.54275458673030
H        -1.35958932999416    5.71165588663139    2.66527399703043
H        -1.63568647280621    5.31713335224751    0.95129375217008
H        -2.70458746946718    7.67313120519370    0.75601414398208
H        -3.59876957274130    6.39027352503823    1.56554068809331
H         2.71466343105129    9.71154294006052    1.67556374800590
H         4.01112574859073    8.84971789166485    2.53916333188875
N         0.25501806436670   10.20218205106169    4.11914526542559
N        -2.09689799746291    9.12275619116570    2.88441377979475
O        -0.19932221921054    7.48909729226234    4.02687197485282
C        -2.95515180565987    7.93104192043418    2.88962923214860
C         2.72951989352564   10.02885575072693    3.81648497367756
C        -0.99984648407307   10.97655970871733    4.07374783606767
C         1.48536719590726   10.93824069589482    3.80014254800917
H         0.34994611020802    9.79680340175385    5.05217326822500
C        -2.19736518721330   10.00535886907331    4.06215730488006
H        -2.30827009225024    9.67378953612015    2.05031132564445
H        -2.71442026650208    7.36163373424650    3.79041334337052
H        -4.01107085273929    8.22325850029473    2.92688520362409
H         2.70455098059640    9.39983349871922    4.70995794396925
H         3.59886984642108   10.68268677066888    3.90060837047023
H        -0.99466803439435   11.55724198198795    3.14676427991980
H        -1.07981015942275   11.66309462822966    4.92316356311838
H         1.35979393935209   11.36151972940649    2.80073413038150
H         1.63574402734968   11.75586016832226    4.51476057070208
H        -2.15909855916848    9.37182991096070    4.95281359798722
H        -3.13718329336500   10.56696803314087    4.06518362929487

