101
CSD_code = PIGCAL | q = 0 | S = 0 | Stoichiometry = C52H44O2P2Pt | MND = 4
Pt       -0.44416543000646   15.13471404181761    9.99012807491838
P        -1.74537184303142   14.00679194130795   11.55033703879610
P         0.45851442446292   13.48272144955208    8.63377533220827
O        -0.14042308169605   17.22348348465678   12.68716412910488
O         1.60546896249899   16.33358244198750   11.51519766737702
C        -0.28810181835549   17.19407044667493   10.35787700347829
C         0.32521769987831   16.88451025783380    9.10498743285180
C        -0.28519859828139   17.18829111922144    7.81255879023946
C        -1.66020670443228   17.40515046825953    7.66822309629309
C        -2.21512586538111   17.61890351809939    6.42196722597649
C        -1.41765346316828   17.61674171312989    5.28920591289312
C        -0.05439340882912   17.40343575884038    5.41550222617776
C         0.50576080656903   17.19660380117030    6.65976748413306
C         0.49993436238194   16.85518371902059   11.52839276971943
C         0.34758754364278   16.90537310129404   13.93640661102758
C         1.69530958398361   16.82691582849531   14.25493717526924
C         2.07231829699890   16.52742895660369   15.55219550779162
C         1.13359143947042   16.31901441169866   16.55090796933888
C        -0.21267562180257   16.42201673952338   16.22036283669451
C        -0.60690263881181   16.70636767210093   14.93002336009240
C         1.55072444136792   16.00814338262842   17.95718683693601
C        -3.23837435322674   14.70001736918259   12.34641317435930
C        -4.30110366087746   13.91403032920355   12.78113304026366
C        -5.38777312789175   14.50236472526467   13.40337137811471
C        -5.42453043336473   15.87340451045777   13.59910001113277
C        -4.37156707366894   16.66124940290304   13.16362939946632
C        -3.28707386641653   16.07745610547315   12.53506840975675
C        -2.37079907795057   12.36468350711217   11.06285604909508
C        -2.13560157477806   11.19426925497674   11.77182601153037
C        -2.66094222715511    9.99685443413962   11.31674812923687
C        -3.41118223228648    9.95858851807112   10.15335764416404
C        -3.63731669885176   11.12336352434078    9.43490877369825
C        -3.11857377918734   12.32004505815534    9.88883615924707
C        -0.68227333793440   13.64782265139079   12.98096567953451
C        -1.14448555847389   13.51163293756700   14.28479478915665
C        -0.24692519772457   13.27510431049959   15.30993082375296
C         1.10921583851981   13.18279371987186   15.04455372793200
C         1.57373576929177   13.31989163142291   13.74681010808610
C         0.68114795250013   13.55056844958535   12.71870464317412
C         1.99435340678349   14.06448425679189    7.83943486751324
C         2.26266330537403   13.94156590041358    6.48232895980272
C         3.43816769715925   14.45470343588210    5.96120435305963
C         4.35169959923683   15.08948162311882    6.78570825830294
C         4.08274949086157   15.22614645714272    8.13850715719211
C         2.90596895647821   14.72537579920334    8.66238381780092
C         0.97634508500511   11.85873278359231    9.28875427885851
C         2.22893689781898   11.69100931768697    9.87264811989555
C         2.56955304158776   10.48736474346278   10.46133395771733
C         1.66587948831558    9.43803560608468   10.47590653501111
C         0.41624113631679    9.59989123569607    9.90117267260037
C         0.06788195947520   10.80430921669961    9.31986946189654
C        -0.61159856236097   13.04652458600850    7.23356772695247
C        -0.40123608405464   11.95474289677252    6.39700583796132
C        -1.26027948934775   11.72644703820433    5.33739873699768
C        -2.32467138944216   12.58339589160963    5.10267959490238
C        -2.53802154697650   13.67066869399353    5.93395888243077
C        -1.68556126730159   13.89707125114386    6.99820866079962
H        -1.14271584781517   17.84899022522560   10.47839012138189
H         1.41548398725728   16.85546340695726    9.09590120407048
H        -2.30231455354278   17.38953496761536    8.53906632950168
H        -3.27983146715151   17.78413551448774    6.33107328668271
H        -1.85541314941474   17.77884888926138    4.31504386423564
H         0.57500307228715   17.39928960418003    4.53682975083435
H         1.56969467620908   17.02484550937181    6.75014935138333
H         2.44241112089571   16.98400582339260   13.49536142527068
H         3.12500919456580   16.46014035215681   15.78788901343729
H        -0.96306257957425   16.27026206006236   16.98339613962719
H        -1.65304790827673   16.77553186196278   14.67355734023945
H         2.58270811229992   15.66716466295786   17.98993192817157
H         0.91122211316301   15.23971898745615   18.38758249449877
H         1.46721077918443   16.89909144260667   18.58054762032030
H        -4.27878018735231   12.84355323179409   12.63209823292753
H        -6.20978933568614   13.88669167105000   13.73963231423116
H        -6.27467067512908   16.32685969998617   14.08736844885984
H        -4.39809338480130   17.73131286823813   13.31187992828613
H        -2.46254189042891   16.68538602958985   12.19028407381274
H        -1.54494421772822   11.22046347410172   12.67672684820219
H        -2.48363002137128    9.08882509430575   11.87507017279215
H        -3.81644065718255    9.02079375227848    9.80204478607164
H        -4.21242631655316   11.09475237242167    8.52061136703183
H        -3.27985984903977   13.23703602153353    9.33621610216780
H        -2.20128544800777   13.59790665293030   14.49655826017487
H        -0.60707215278274   13.17058632717580   16.32315108974969
H         1.80466385338707   13.01227449115695   15.85301281149300
H         2.63132009787582   13.25908294573873   13.53879946281395
H         1.03183916324048   13.67474116255688   11.69872730481710
H         1.54984866914141   13.46129294674401    5.82812507749588
H         3.63889129542538   14.36216366975100    4.90345157765621
H         5.26636962946405   15.48917331918411    6.37249903747539
H         4.78384580996902   15.73715781269535    8.78233251823563
H         2.67183677128248   14.87430435865881    9.71019183814696
H         2.94205392649250   12.50253874323209    9.85921767097337
H         3.54509360686802   10.36686719169378   10.90968017604369
H         1.93462943824088    8.49758130196397   10.93403861809096
H        -0.29392579216178    8.78596778235161    9.90759765978991
H        -0.91168202442808   10.92895703135345    8.88137690247776
H         0.42838864634510   11.28543456185086    6.58059800660978
H        -1.09784768913364   10.87813071418396    4.68790198318501
H        -2.98852746351072   12.39956707522963    4.27048297714479
H        -3.36627901958508   14.33954630070994    5.75245820484213
H        -1.83690050568733   14.73919266058949    7.66716236569102

