101
CSD_code = PIGCOZ | q = 0 | S = 0 | Stoichiometry = C52H44O2P2Pt | MND = 4
Pt        3.19535335395880    3.82431068921621   14.90642305218790
P         5.16837708592416    3.10530987723184   13.93420494172828
P         3.75205261510331    5.66757269890783   16.20325830046939
O         0.01996729921880    5.53965649727793   14.95088859811765
O         1.32098740899802    5.11311042198014   13.12547600846002
C         4.84755687922291    2.33753769486814   12.31430238184825
C         4.00035154098730    3.04475327779426   11.46220606758175
C         3.66024371354791    2.52581764054962   10.22804634906385
C         4.15123336095367    1.28799782438844    9.84081280562782
C         4.98051803116074    0.57565255846586   10.69072942841891
C         5.33109147495218    1.09530475772186   11.92550331271825
C         6.56542604638954    4.22048320484013   13.56110302234693
C         7.25469236689346    4.76527178822806   14.64223377148893
C         8.29385091211321    5.64962113459506   14.43479646928367
C         8.64940914565006    6.01079785085994   13.14470342096028
C         7.96100141210541    5.48218129454129   12.06687928840751
C         6.92164362161170    4.59135248621161   12.27044727160699
C         6.00328546444388    1.78247578365900   14.86188743430528
C         5.24432149770333    1.10825753996183   15.81183386078455
C         5.79112693810704    0.06075227491193   16.52911474757991
C         7.10693981962537   -0.31103045356460   16.30732724679521
C         7.87277051350581    0.36721003367114   15.37140929816613
C         7.32628902846395    1.41090622581909   14.64658779461099
C         4.75793912684187    5.44308973866703   17.70675333462167
C         5.41509074697889    4.22718627611150   17.85590246894090
C         6.21705931221428    3.99425993970127   18.95769362737776
C         6.35821863619865    4.97602626376918   19.92494874214516
C         5.68668090013811    6.18145384252245   19.79358163767448
C         4.88489924646498    6.41739023752880   18.69121746106896
C         4.74462128300734    6.79558656422987   15.17359432322924
C         5.72934259005428    7.65543119568030   15.64240369584113
C         6.42124296287796    8.45736766924460   14.75191399362681
C         6.13692426643372    8.40682027200700   13.39746533508186
C         5.15973946816178    7.54585825402838   12.92461201793303
C         4.47125143141608    6.73940866502292   13.80951287903684
C         2.45163410493118    6.77616717251121   16.84567046475057
C         1.46484412877948    6.17839396187290   17.62501124559541
C         0.42752461873349    6.93110366379425   18.13710724875546
C         0.36444007157386    8.29002180125567   17.87030341923524
C         1.34122411126218    8.88925902402655   17.09471812140792
C         2.38149074437684    8.13711744980550   16.57717339018664
C        -0.22768848308658    6.86226632006769   14.67354599774393
C         0.64995304230800    7.70371574855040   14.00400200675593
C         0.31789384533488    9.03609236863890   13.83322784286400
C        -0.87057520480662    9.53942822626883   14.32960899789366
C        -1.74017549357192    8.69870904389104   15.00494065581349
C        -1.42404882111817    7.36632514582485   15.17664722390306
C         0.87314580449654    4.76597397917041   14.20769678404201
C         1.11392926372196    3.49036347486342   14.85266007403625
C         1.78831351483029    2.49843302580306   14.07549426587295
C         1.92823746389331    1.10302954993558   14.48803892352978
C         1.78039489480897    0.68847264212313   15.81498470047757
C         1.99819752876941   -0.62640999784320   16.17675743000558
C         2.37604091766384   -1.57614395759888   15.23711906578934
C         2.51439815488187   -1.17126070587306   13.91355063799785
C         2.28941217868932    0.13735385197540   13.54351347134912
C         2.64878935313218   -2.99647312871791   15.63088201944966
H         3.59608566389582    3.99609535900983   11.78781712124270
H         3.00155665456188    3.07753823136408    9.57334346605293
H         3.87734730696554    0.87418156042318    8.88125350015564
H         5.35272648245631   -0.39427845531569   10.39357155455222
H         5.96912662813127    0.52883898164837   12.58827462454814
H         6.96620185871005    4.48876940045868   15.64801371941447
H         8.82568401704357    6.06256375901667   15.27950093178812
H         9.46018690001343    6.70530672682845   12.98161197091266
H         8.23484815611824    5.76375365082211   11.06036658561055
H         6.38925790707945    4.18106855595386   11.42442893464272
H         4.21828537990409    1.41785940080150   15.97749852182557
H         5.19182613787968   -0.46368902755874   17.25843278363234
H         7.54022958907033   -1.12839615536044   16.86534438813166
H         8.90022573792014    0.07771876956404   15.20387484064586
H         7.92254257888606    1.94042908841193   13.91607676341838
H         5.27625777435846    3.46325005181592   17.09884221138640
H         6.72661091662958    3.04744968241362   19.06343804355067
H         6.98332781920473    4.79944779812673   20.78796450260812
H         5.78718872350927    6.94035072575943   20.55621646478010
H         4.34751059983943    7.35151600910408   18.59902325935506
H         5.96071860600637    7.69219130394240   16.69750364217850
H         7.18857840189239    9.12504282374038   15.11697809446105
H         6.68248402539803    9.03516843996067   12.70884002389876
H         4.94155155284497    7.50094420681836   11.86784393097313
H         3.71289469226925    6.04680347787530   13.45412690641813
H         1.52144174209713    5.11331330414971   17.81444194396609
H        -0.33800560507593    6.46110559616531   18.73706037593854
H        -0.45010693198707    8.88057347469563   18.26241033071132
H         1.28909202305073    9.94699384673565   16.88256617076681
H         3.13559310856277    8.60766068290449   15.96201714549592
H         1.57971617754539    7.32477233576610   13.61446946656001
H         1.00441376939559    9.68562987734961   13.30979726315060
H        -1.12016945542802   10.58117598361652   14.19214993146389
H        -2.67051461780338    9.08219950246341   15.39779415328546
H        -2.08801415365549    6.69697348978654   15.70155353633341
H         0.53290361273444    3.27056572878652   15.74087534872537
H         1.77064855402538    2.64794459551959   12.99398976878921
H         1.50928295250072    1.40563242346646   16.57767615922963
H         1.87871752285602   -0.91918417332462   17.21134251812375
H         2.80224109072324   -1.89619459474710   13.16455240017980
H         2.40532709868476    0.42970518045850   12.50898348678891
H         2.15050499688419   -3.68670017865213   14.95202349717572
H         3.71957145274375   -3.19965189621884   15.58504292666920
H         2.30542731056010   -3.19336022565169   16.64383841386169

