68
CSD_code = PIGLEZ | q = 0 | S = 0 | Stoichiometry = C22H40CoN3P2 | MND = 4
Co        1.68986744153160   10.85780084159222    9.41475094644528
P         3.89597437632138   10.72440212540981    9.82826345064974
P        -0.36116159375852   10.78597380022110    8.49632941580411
N         2.21245299006660   10.35933920853595    7.72136564051604
N         1.23618824725762   11.34878909561306   10.88932042961550
N         0.92627731330755   11.74615393621625   11.89851035659829
C         1.37716934946315   10.15218977426122    6.66167307750815
C         3.49670854087925   10.11920796752812    7.32550748399136
C         4.47601219554511    9.33006081475540   10.96561299805358
C         0.03311416808990   10.31506272435037    6.81514879642711
H        -0.68367353745189   10.14903282378365    6.02764380878308
C         3.47298014550406    9.74545680665651    5.91920478375799
H         4.34522159116233    9.50189052515049    5.34021549844820
C         2.18809384867368    9.76571627279940    5.51669767306190
H         1.79534647979971    9.54226848708593    4.54141859253252
C         4.77382504683749   12.36219354619369   10.17464612384553
C        -1.25312142553794   12.44053189979279    8.29763278261231
C         3.86439062518495    8.08565777798042   10.31405949398659
H         2.79708459808120    8.24714259209344   10.13850118067498
H         3.97927151599581    7.21649067515165   10.96003254420167
H         4.33773627756028    7.87309975690231    9.35711144440385
C        -1.50675116884566    9.40462508041487    9.09148363813712
C        -0.09313712267256   13.41255596615227    8.05740721700549
H         0.56699291497462   13.43341735439250    8.92612981132696
H        -0.46360704755172   14.42164305401293    7.88137347502811
H         0.49011454064312   13.10246294585217    7.18986693453457
C         4.65292377029172   12.75624831302434   11.64369618628776
H         3.63373267863861   12.61110664342673   11.99821296100660
H         4.90912869843706   13.80847261143419   11.76673500930487
H         5.33018231330280   12.17388834543689   12.26425314124606
C         4.51721461538257   10.24587176967824    8.21936262947819
H         5.54995571720646   10.05175745973086    7.97988214266483
C         6.23363274133802   12.38781555848762    9.72925095520444
H         6.83783909660372   11.66861680632213   10.27396246838247
H         6.64710679348655   13.38012761449102    9.91004897239640
H         6.31540747648195   12.17960225307510    8.66500021166368
C         5.99101037087323    9.18283742546261   11.05230222146685
H         6.44196719841979    9.17589470633472   10.06230578193755
H         6.23839194371050    8.24059492128510   11.54156879281344
H         6.43166723697741    9.98643796381987   11.63784914549504
C         3.87290557279226    9.49087071518884   12.35957121575475
H         4.30301158312182   10.33331163835425   12.89244838937607
H         4.05686117073356    8.59120296873641   12.94658935314191
H         2.79666346818687    9.63950827463124   12.29324530773279
C        -1.98426535200855   12.83407586587325    9.57766530150551
H        -2.90195050943499   12.26292536515959    9.69835231053582
H        -2.25095399730417   13.89024767941904    9.54131142100796
H        -1.34953631671895   12.67376497186813   10.44768336879077
C        -2.80858472370762    9.28955485797825    8.30652203370799
H        -3.48668122856944   10.10505194766013    8.54732983446448
H        -3.30768347132115    8.35504702805939    8.56338666970621
H        -2.62161541322333    9.28718932752653    7.23476198469157
C        -0.65631852960281    8.14710285771577    8.88512619963840
H        -0.51571869363506    7.93980285987275    7.82579808810811
H        -1.12782649639777    7.28235984957657    9.34963462029143
H         0.32884861180145    8.28881531451708    9.33868305646255
C         3.97534663940280   13.34997650687590    9.31748920214696
H         3.98970329391197   13.04416308969958    8.27100418716253
H         4.39461108857093   14.35269758518060    9.38979050563539
H         2.93683084724872   13.38469241232278    9.65148925058217
C        -1.79291208123552    9.55398539318944   10.58432943956986
H        -0.86382051272418    9.66993164206901   11.13942540087376
H        -2.30084960481834    8.66294965568949   10.95297381039697
H        -2.42538371101759   10.41158880305512   10.79208542287447
C        -2.19885312204988   12.49264649455029    7.10049859592008
H        -1.66225510255713   12.29047920155966    6.17644916158231
H        -2.63023118154755   13.49104530108002    7.02673493687357
H        -3.01397319011316   11.78147414767509    7.19458271418539

