90
CSD_code = PIGTOQ | q = 0 | S = 0 | Stoichiometry = C25H57BO3OsP2S | MND = 7
Os        2.10526571648407    1.88808607627229    3.39517374945571
H         1.89864043771858    3.07956968134513    4.48273014459262
H         2.48630424153933    2.35408589917418    4.89977383385350
H         1.78916541729097    0.92088239618416    2.22943074931585
P         3.49095116193498    0.04082670890982    4.08194837947114
P         0.52959718533553    3.35057678751440    2.30130493565652
S         0.09565983496482    0.85180436994014    4.60852504263230
O         0.92557230381024    2.23990698661390    6.90411326694805
O        -0.87958227596439    0.86625398111919    7.18876598616235
O         4.40127107795384    3.03401569535965    1.77657401772086
B         0.04966346032572    1.34183012922533    6.29041354639408
C         0.43165325139274    2.51497901048335    8.21262474058684
C        -0.33449305950002    3.84259764804420    8.14012728147914
H         0.33234341542212    4.61196105720410    7.75482212242916
H        -0.68901509705326    4.14262256894712    9.12168610000252
H        -1.17697302569866    3.74970032163689    7.45855392931858
C         1.59769221448997    2.66587030257012    9.18627392419953
H         2.25328185100353    1.80119020888738    9.15957626890701
H         1.21884246837028    2.79986169110758   10.19623889128628
H         2.18022776306899    3.54238954059854    8.91005980955629
C        -0.51383155589595    1.29714288750719    8.49469187372656
C         0.21925208181851    0.12959761536671    9.16998118551333
H        -0.43224953264846   -0.74139678711406    9.15064257013928
H         0.46835099703273    0.36601622145546   10.20053026389659
H         1.12520220583009   -0.11584940936307    8.61969971515767
C        -1.76881193557487    1.62885117996744    9.29759022638628
H        -2.41139356066696    2.31577075730915    8.75606045779285
H        -1.49596340382982    2.06355407947184   10.25603084671110
H        -2.32748538541184    0.71238924110680    9.47081336289538
C         3.53204599953097    2.61825041992712    2.43217741036495
C         4.77119453057156   -0.39873035952511    2.76886146512097
H         5.09433735849376    0.59172388330818    2.42145669107166
C         4.12046509655680   -1.10094036738837    1.57984300256038
H         4.75387502196920   -1.00283300256541    0.69956607392579
H         3.15445298145140   -0.65235254253534    1.35779943022478
H         3.98716747440477   -2.16087337821708    1.78050446458553
C         6.01455757982283   -1.16777931181114    3.21328121011882
H         5.76374414045618   -2.12223445579346    3.66571150748342
H         6.62363212678460   -0.59822414062655    3.90981366322220
H         6.62589121817776   -1.36732571736387    2.33345192138188
C         4.60460615952391    0.35609064726683    5.55817292188242
H         5.29742512548987   -0.48790399628769    5.63523008940058
C         5.41247887174937    1.63172255178210    5.32617969316883
H         4.76019967864162    2.50432643363496    5.31687594268428
H         5.94345638687043    1.60234898292845    4.37670076581334
H         6.14304723753089    1.76394188234089    6.12392071132711
C         3.81379858065612    0.45950170289646    6.85894369601024
H         4.46270081196578    0.82129966421449    7.65691291000259
H         3.41666741152905   -0.50778890523607    7.16122572666040
H         2.98232568773857    1.15696427441871    6.75972584564083
C         2.59226876065632   -1.51487459522505    4.61007193971149
H         2.00439380209766   -1.14391526336590    5.46224890186131
C         1.58660908791028   -2.00035458356077    3.56911117233895
H         2.07316574815256   -2.50496526524213    2.74035655118953
H         1.00364673794427   -1.16512677115587    3.19019492410394
H         0.89686654476032   -2.70073517726221    4.03722185214256
C         3.46451773111238   -2.67873195258812    5.07470739892786
H         2.82917610224768   -3.42288495836561    5.55456274112368
H         4.22430890783750   -2.37753267253039    5.79150630028982
H         3.94851494650090   -3.15952996024177    4.22793587316849
C        -0.20961188079916    2.66242114257499    0.73013295425842
H        -0.93609331706286    3.39259002393894    0.35665501268835
C         0.86386114190210    2.44089014215742   -0.33196847667370
H         1.72675289848847    1.93991237798679    0.10736811327389
H         1.19067275152356    3.37731446789254   -0.77782830141840
H         0.46997589893438    1.80999148892956   -1.12681395695126
C        -0.92904790915601    1.35301831056195    1.03972677207483
H        -1.41158475297218    0.96747246613350    0.14272624251775
H        -1.68144164124121    1.47575516272656    1.81447910017085
H        -0.21560178497784    0.61472345029038    1.39770422874003
C         1.33056757626486    4.92767915882347    1.65893620499492
H         2.03310017575052    4.52541272959792    0.91610866052388
C         0.40553230609680    5.92341211853324    0.96552606073083
H        -0.21724408673651    6.44597304983027    1.68752729075744
H        -0.23232836551428    5.44287174530047    0.22877199689611
H         1.00736883418467    6.67079961481520    0.44868886651496
C         2.17097572336008    5.64609201911207    2.71371794277663
H         2.77136676651344    6.41762727174770    2.23307349711903
H         2.85120941244594    4.95215206392755    3.20582215643939
H         1.55218222303706    6.12457579798862    3.46759680314498
C        -1.01079661865272    3.79463766854488    3.28127403311751
H        -1.26540058645415    2.82526687872064    3.73598164420287
C        -2.22917119361788    4.28838929760148    2.50319654909462
H        -3.03558027552764    4.47485454859106    3.21260210880241
H        -2.58697654553159    3.55031702760838    1.79172816107933
H        -2.02979050542526    5.21726377561809    1.97671197882631
C        -0.69174021031566    4.76639413378373    4.41508611825836
H        -0.53720444236942    5.77588512726240    4.03865055521811
H         0.19318320338865    4.45342438457639    4.96739416653321
H        -1.52571089828357    4.79786264219882    5.11609349659780

