38
CSD_code = PIGWOT | q = 0 | S = 0 | Stoichiometry = C19H12N6Pt | MND = 4
Pt        4.76119185933295    4.50549378639760    0.73697810026871
N         6.16047192814323    3.05318778940241    1.14211448390790
C         5.79701025057865    1.75483158811561    1.13169666682385
H         4.75076902179510    1.54420573510363    0.97089574147485
C         6.66022604706298    0.69971347966875    1.30663911443608
H         6.27610396071719   -0.30658506352825    1.27989974690362
C         8.01487060200454    0.95559452909203    1.50908915579999
H         8.72414275864354    0.15217360846311    1.63578802727669
C         8.40757946549579    2.26487103199450    1.55318920424292
H         9.43100692309732    2.55660877920939    1.72326408154486
C         7.47722367263714    3.31481390510236    1.38574655610001
C         7.44403241829195    5.66919019611043    1.41366881325149
C         8.13585685014650    6.94421174209764    1.62402626511495
C         9.43449384567861    7.25736721472671    1.96957271943766
H        10.16248107952291    6.48031844709107    2.14021055989067
C         9.75825298952455    8.60319591830439    2.08664621244658
H        10.76546778527307    8.88522650003170    2.35659644432281
C         8.81208409651599    9.59525245533737    1.86408193516276
H         9.10033418191242   10.63144244712764    1.96415749660096
C         7.50465188332676    9.28085073687776    1.51552784966986
H         6.76357538032024   10.04460955166118    1.34079131128511
C         7.18200135037942    7.94426328517150    1.39993375776340
C         5.93801725019699    7.24887183105476    1.05700884628377
C         3.67003979981638    7.32357487775275    0.42738974480537
C         2.68098297820490    8.29169115377129    0.14344338694423
H         2.98387932012053    9.32201754221032    0.23189973226344
C         1.41504089818368    7.92674186931484   -0.22314133718906
H         0.65849702225519    8.66473707229962   -0.44160413636796
C         1.14013035411575    6.56329396216495   -0.30382569460502
H         0.16431722740248    6.20242085235361   -0.58418877028885
C         2.13582746061657    5.65987017432768   -0.01840858491553
H         1.91065897824371    4.60651864102195   -0.08495072092873
C         3.41596294711813    3.13711723060871    0.36919783248451
N         8.04296195546052    4.52962709730039    1.52498493399501
N         6.15165231537136    5.91169435845832    1.08838966419813
N         4.84822766865871    7.88067065286923    0.76931074128201
N         3.39190560520455    5.99036048001981    0.34348527152926
N         2.62886986863047    2.32555454091357    0.14029484678306

