49
CSD_code = PIGYUA | q = 0 | S = 0 | Stoichiometry = C21H19CdIN2O5 | MND = 6
I         6.38225376289304   -2.50688144831968    3.11636735220654
Cd        5.43513060124547   -0.03516955000224    3.30882083767747
O         6.90920508808099    1.06027623040062    2.14962271272805
O         6.86268311738480    1.63104388061916    4.27087733576750
O         5.69193984679191    2.41497670140283    0.30524554704848
O         7.79706121802271    1.90876124979972   -0.25392365826027
O         4.46918033109938   -0.03070345353071    0.98742256202942
H         4.84699852049427    0.78308604388021    0.60402029328052
H         4.92622677180074   -0.74952527920422    0.53325635782417
N         4.43032721850048   -0.30950600215752    5.46212430800961
N         3.96316075858029    1.72360332625556    3.70054613656896
C         7.21668391150886    1.82250196055020    3.09992292038411
C         8.04108814047056    3.04346409642038    2.71280357776949
H         7.95510452290601    3.79270251601945    3.50418479766042
C         9.52872814903290    2.73952775051969    2.44612004304510
H        10.08678075323635    2.51153610782930    3.35197752207593
C         9.65665939799194    1.67168498149831    1.35236490820368
H         9.09211375640353    0.76607739617882    1.56740865907019
H        10.70241620815263    1.40283938013323    1.20665481987854
C         9.09329415062471    2.37891361415875    0.10173453581565
H         9.71862647793847    2.25906012586014   -0.78332733536772
C         8.89100611867324    3.82486525739849    0.59323654384987
H         8.85088862214835    4.57598059539007   -0.19328275377173
C         9.94119529180560    3.99837411577807    1.68068171770046
H         9.81062017461653    4.91556838978722    2.25209802563690
H        10.95775578054686    3.95112498605014    1.29384827926627
C         7.57038976164868    3.60003218283403    1.34743837524507
H         6.92381813612191    4.47097618764073    1.45265480098164
C         6.88438617622588    2.52790864856691    0.49509301164519
C         4.65970010625929   -1.29455222119360    6.29983818611051
H         5.14494528316176   -2.17374459485371    5.89414419089410
C         4.30239364270932   -1.24560789290253    7.65190650914927
H         4.51379214877142   -2.08654535236625    8.29294030188381
C         3.68970814730169   -0.11565918534092    8.13312827673148
H         3.40002445057969   -0.03213720663639    9.17095721597988
C         3.43718337805788    0.95438094115729    7.25795235198722
C         2.81364006485378    2.16110803566127    7.68426202468058
H         2.52093404126228    2.24474980944007    8.72066483892142
C         2.60101321251871    3.17742241230891    6.81590997489948
H         2.13489460891625    4.09660430746864    7.13973821461419
C         2.98719833471103    3.06711543461466    5.44989856037757
C         2.79321358121287    4.10765692604211    4.52567399779948
H         2.33526394794685    5.03050684389890    4.85285429255774
C         3.19651537285439    3.93036359838408    3.22648088220258
H         3.07192090283121    4.70712232825786    2.48863063527086
C         3.77904272805164    2.71182723354837    2.85601402828277
H         4.11052507655447    2.55285007239747    1.83866041577071
C         3.59414619997388    1.87934746700794    4.98156379574614
C         3.83192200647118    0.80479105132574    5.90838907211339

