71
CSD_code = PIGYUB | q = 0 | S = 0 | Stoichiometry = C26H38Br2Cl2P2Pd | MND = 4
C         2.47985023366569   10.57013014242222    6.22161552841490
C         3.47114813786651   11.47755755738154    6.63790236485084
C         3.13449010462189   12.83521304614208    6.72904015887855
H         3.85777992006973   13.54270455898538    7.11735085239216
C         1.89432064571987   13.32583611344663    6.34472219616344
C         0.96211697880751   12.43746042558231    5.82732233650325
H        -0.00278848334708   12.78535491173989    5.49266170399493
C         1.25918226451673   11.09001375471512    5.78637944918659
C         2.61698745168573    9.09928747116647    6.30011677200469
C         2.55905457331498    8.44603745761848    7.54219799051392
C         2.56073659343563    7.05624646440149    7.57985212279256
H         2.50063856245655    6.55012803116602    8.53048623327119
C         2.62910710901778    6.28915296763485    6.42455718125546
C         2.70240904317895    6.93774607704127    5.20001541354134
H         2.76009907864657    6.36912487131133    4.28458542374911
C         2.68398771748108    8.31864064321178    5.14881077148628
C         1.58644127650364   14.78194359359986    6.48570432708132
H         1.89023002256978   15.13201062437848    7.47030480941319
H         0.52449266364954   14.97110315892736    6.35487918851848
H         2.13613790162215   15.35709978416344    5.74060377259286
C         2.60051540911534    4.79475472280127    6.49181801735383
H         1.57279795949445    4.44290033793509    6.39960415600927
H         2.99508999364352    4.43967819561388    7.44064180882175
H         3.17767771655251    4.35876774034238    5.68014967624559
C         6.20509258695434   12.45332026508111    6.83027797635000
H         5.82549168703842   13.28647299853472    7.43421810990653
C         6.14260652065016   12.83315431406152    5.35276404954168
H         6.52069784889221   13.84732530674087    5.23323306398888
H         5.12461448027488   12.80509585770396    4.96840618348478
H         6.76024204112859   12.17938668623097    4.74468292845110
C         7.63860520550388   12.22810776700581    7.30220346193625
H         8.15747224788606   11.49582812255591    6.68965461191770
H         7.64167659972331   11.90096379152224    8.34116550045661
H         8.18973553575929   13.16473428216106    7.24403907237102
C         5.72370807067171    9.46837570634673    6.54225711572819
H         4.92924284652161    8.74520562004002    6.75179573179195
C         5.90674100805949    9.57412913338276    5.03347712044210
H         6.86632824045711   10.02131811011690    4.78999769102500
H         5.12332374894226   10.17322635227620    4.57752404264117
H         5.88371753488220    8.58081163114267    4.58732303836015
C         6.99355678645360    8.95599939705922    7.22657129868831
H         7.06960693611953    7.87614063227724    7.11136901732411
H         6.99130741570950    9.18780892226884    8.29047669209916
H         7.88371818623950    9.39718175672373    6.78841411156147
C         3.37377192327365    8.32470651830175   10.35399260046654
H         2.80485938968182    7.39786990225964   10.48905457045574
C         4.79583715538321    8.02062712239313    9.89214616796792
H         5.33909176380374    8.96975021959628    9.79743529691155
H         4.81585032213574    7.50200017948383    8.93533123151639
H         5.31096280746244    7.40569474816107   10.62837497879032
C         3.44691019787479    9.07349783289718   11.68446655216449
H         3.94483712475052    8.45705613225933   12.43179112344679
H         2.46174210442687    9.33964269129465   12.06128299144099
H         4.02752992690584   10.00065428960171   11.55999956395545
C         0.76616072874747    9.42908813979073    9.63278587487170
H         0.81458395725114    9.75438910213250   10.67868877496357
C         0.08832790663369    8.06732210931769    9.53916302602950
H        -0.93651894738740    8.15783870863619    9.89445065316044
H         0.58750109544191    7.31939361448987   10.15080349096233
H         0.05650929591555    7.71765277166624    8.50855108462227
C        -0.01645885699008   10.48132911153834    8.85356011379434
H        -0.24432633596286   10.12525752353867    7.85386794083431
H         0.55228903541572   11.41072132875686    8.79107990865764
H        -0.95666571700609   10.69454934614769    9.35760422711044
P         5.10888581438876   11.03603006035648    7.36415191031536
P         2.54972396881160    9.43226163545378    9.09767334028045
Cl        5.20856050005756   13.00328164494182    9.86339033196745
Cl        2.30113992515472   12.12055210937425   10.70772613933518
Br       -0.12343217033208    9.92144830409765    5.15678215802576
Br        2.77041971007263    9.14793948526948    3.42872981715800
Pd        3.82921897192631   11.31616606326289    9.24354305767665

