29
CSD_code = PIGZOU | q = 0 | S = 0 | Stoichiometry = C12H16Ti | MND = 12
Ti        0.39503221654670    3.35725464701790   -1.92997386780448
C         2.18540642767523    3.22628254229615   -0.31026637877337
H         3.00353462223843    3.92466345607810   -0.19210473296406
C         2.21984037156568    2.03807425090705   -1.06220941483772
H         3.06736277983943    1.66012483074928   -1.62053971133325
C         1.02989772044435    1.33030449175510   -0.81322679904062
H         0.81524196635157    0.32043312935857   -1.13840864518181
C         0.25000689847909    2.09176783770787    0.08018600291932
H        -0.66834810583153    1.76580377738880    0.55154403555936
C         0.96368047890755    3.27250444511636    0.38212879963733
H         0.68356763104812    4.00782176299411    1.12685585901612
C         2.32213061217549    4.18002860457771   -3.14744769138579
H         3.34522008066070    3.84099842649655   -3.05207310990717
C         1.38189720496668    3.69565200973820   -4.07198795122638
H         1.55855932931553    2.92445257876985   -4.81234073525930
C         0.23684359716930    4.51943902077777   -3.99676779402115
H        -0.61049501312643    4.49327255961531   -4.66990501790010
C         0.47053677951621    5.49696464978060   -3.00881121950302
H        -0.16354141714605    6.34870185087297   -2.79883510396396
C         1.75378109314779    5.27658592863887   -2.47512978028806
H         2.26153918688787    5.92911521144404   -1.77544692492095
C        -1.36466145747104    4.25078589417591   -1.22000787969130
H        -1.96795892408097    3.57330091704048   -0.60667942364056
H        -1.11039226463151    5.11912249169386   -0.59580728088646
H        -2.01015334049777    4.60386096210041   -2.03200533216599
C        -0.79172072917772    1.94449744094217   -2.92733821251640
H        -1.47708773455258    2.39691893324482   -3.65162350037858
H        -0.14550729689046    1.24719351441360   -3.47915385183401
H        -1.40421271353318    1.35337383430687   -2.23742433770764

