134
CSD_code = PIHDAN | q = 0 | S = 0 | Stoichiometry = C54H70BN8Y | MND = 6
Y        26.26072617305545    6.12676640343380   14.04865960378487
N        26.39930233966440    6.38991471535013   16.46287247333460
N        24.33306798589156    6.37184763407179   15.58592716154380
N        28.53632600942736    5.82683586000469   13.30771354971766
N        28.67516872974224    5.35532143132147   12.04791366503513
N        26.58838128647811    3.63939135678103   13.52490798690881
N        27.13932853829802    3.40694353879058   12.30992846167057
N        25.40254948385685    5.72696792507822   11.86987331344078
N        26.33948853887949    5.36171256828314   10.96242699797200
B        27.58146535458520    4.52571580349446   11.34446334940941
H        28.03307086314205    4.04579299295018   10.36856599599993
C        25.09396882641814    6.50504641537560   16.65821268733665
C        24.50836844746228    6.72984939277218   18.04038787935049
H        25.33737112246932    6.81812369498196   18.74836830214851
H        23.94965456850716    7.66566517707243   18.03137006976525
C        23.59897262598782    5.61920113918599   18.48286377331891
C        24.11412894890149    4.34869225023710   18.71172025204029
H        25.16338490661518    4.16514050431496   18.53577711404679
C        23.30267920467933    3.33090173121228   19.17694824212363
H        23.71881913948181    2.34985874159086   19.35519512640533
C        21.96091357952254    3.57068613544766   19.42199006250993
H        21.32730995656831    2.77905934932790   19.79485419282515
C        21.43573816028115    4.82947126624478   19.18347925563967
H        20.38831056082930    5.02262101901630   19.36424612034328
C        22.24881953290114    5.84582936742303   18.71486217472334
H        21.82837742941521    6.82387517462355   18.53000556045329
C        27.36615143042882    6.63511423365564   17.45864634265971
C        28.16251326844310    5.56992359140909   17.92235782742119
C        29.20356347687760    5.81474482962431   18.80273261302390
H        29.81847765624393    4.99485796421047   19.14145181885730
C        29.46555902257488    7.09098270763972   19.26031355931291
H        30.27393567634823    7.26893755923560   19.95400164046820
C        28.68361312190955    8.13719554078264   18.81579702704769
H        28.89207011708631    9.13560583669416   19.17003763357569
C        27.64441041032967    7.93865748026530   17.91771041521863
C        27.90373526833866    4.15905939227717   17.45121975854659
H        26.91627725302762    4.15117915135260   16.98383751693364
C        27.90613242900131    3.15720083795460   18.60918585316615
H        28.91579888764569    2.97516016938162   18.96903837386764
H        27.49331483905614    2.20403358717523   18.28311791098184
H        27.30907147502914    3.52352263440179   19.44224744093245
C        28.93061861070051    3.75383222335952   16.38972563359900
H        28.81348861864399    4.36960571762838   15.49882249413959
H        28.79492585051843    2.71192277760727   16.10612622542016
H        29.94206468537152    3.87584582606067   16.77296868968885
C        26.88368658049894    9.14967264248856   17.42753699418229
H        26.12765344430248    8.81690533531357   16.71125473665776
C        27.82307258439710   10.11665757124747   16.70038666212643
H        28.54094819795617   10.55495209586721   17.38962870614926
H        27.25091164839511   10.92217119609338   16.24475181265240
H        28.37366281341055    9.59968670785671   15.91875734745082
C        26.18767208660379    9.87912785742838   18.57939789929958
H        25.51985787704535    9.21390354130201   19.12044356116990
H        25.60724423652847   10.71524732310947   18.19628079557432
H        26.91777025797639   10.26986960092192   19.28431825810302
C        22.93283458202733    6.55066073883209   15.61851913328763
C        22.08210069768264    5.43567539019489   15.48551683620637
C        20.71115182660834    5.61999460419018   15.42703342111610
H        20.06087745790941    4.76665049359952   15.31899772121517
C        20.15434856918506    6.88143867324722   15.51034952452251
H        19.08238492333956    7.00926721084106   15.47484203675678
C        20.98423683879213    7.97647136263727   15.62348342076524
H        20.54916497487700    8.96392087395771   15.66726382891316
C        22.36462477289726    7.83742222975956   15.67093462033919
C        22.66430307869887    4.04682437079917   15.37199283804333
H        23.59109206914716    4.04129899139625   15.95159348740918
C        22.98728738581928    3.74265411793563   13.90500584542346
H        22.09149249548400    3.86426837518855   13.29800205297587
H        23.33734249658977    2.71874553865869   13.79404155587624
H        23.76174915443314    4.41478163982770   13.53286531738826
C        21.75527888155811    2.95288477082483   15.93196619883676
H        21.36043019514873    3.23721556880695   16.90333977580046
H        22.32205959803141    2.03132689773958   16.05102994400423
H        20.92614809572913    2.74741473078207   15.25862666903654
C        23.20542544016566    9.09504271278715   15.70002284988849
H        24.25670049141706    8.80836888903761   15.79653780969238
C        23.04432023408381    9.85372001617603   14.37888876922721
H        23.30124841898459    9.21021544262761   13.54136812243978
H        23.69527114911091   10.72616149157890   14.36118888890412
H        22.01775099705267   10.18895212269575   14.24924983098818
C        22.84074480344243   10.01814666785979   16.86537152870801
H        21.82932390734434   10.40197808394488   16.75673807199014
H        23.52046267990494   10.86735176710882   16.89120461758826
H        22.90305815579494    9.50133387351490   17.82076858056083
C        26.58865790246068    8.40805888331636   13.53550566189090
H        25.75491096039407    9.01265855020929   13.90732940678931
H        27.50491014216735    8.71141318539534   14.05611475706424
C        26.75289861171487    8.61644500553333   12.09277332677006
C        25.67652862608852    8.98517439109994   11.27220356278232
H        24.70882038177091    9.15696435911944   11.72336637170092
C        25.82716437998286    9.14865170953949    9.91099857800076
H        24.97541067386123    9.43475108857215    9.30908773540962
C        27.06114950960248    8.95828029857911    9.31103980047200
H        27.17694806926357    9.07975697361658    8.24393517230126
C        28.15053819958813    8.63709525751668   10.10613469261204
H        29.12915808106296    8.52047447595894    9.65923338614051
C        28.00362403383665    8.48451416612254   11.46834112889618
H        28.87453197153144    8.27236972530376   12.07355304981626
C        29.70688819875635    6.35833791735413   13.66704024439902
C        30.62062171091225    6.22198204036930   12.62064159158994
H        31.64001069774115    6.55060813624835   12.60110957182946
C        29.92737290157975    5.58222055870325   11.60954408928699
C        29.93945166192775    6.99405763943220   14.99336189241199
H        29.01192431125296    7.05149979701505   15.56139250400713
H        30.34594736231294    7.99660398523765   14.86155753763297
H        30.66313127096642    6.41758183999599   15.56904203638024
C        30.43162159358167    5.21585534103252   10.26059805689511
H        30.43242121551930    4.13599623186708   10.12371416802394
H        31.44769322050198    5.58362030301911   10.14394289291922
H        29.80475699771217    5.65479398923243    9.48762153353358
C        26.35131714723188    2.45038408028361   14.07874390901600
C        26.75549720717496    1.43391164962548   13.21171308940023
H        26.69338513368795    0.37699744383112   13.37509056485790
C        27.25109623486131    2.08177982492330   12.09776857308197
C        25.74508916142067    2.26547551329642   15.42325610664372
H        25.44554843311730    3.22512779271545   15.83524915321347
H        26.45792475539541    1.79058339380548   16.09596871635474
H        24.87221778360754    1.61768239542994   15.35832120805446
C        27.81288745004136    1.45996602453129   10.86947497518203
H        27.77046614796479    0.37803604806243   10.96492711453217
H        28.84927010234562    1.75847857791021   10.72328700791290
H        27.24500449995744    1.75776061842752    9.99017177886033
C        24.35637761800157    6.20813620402560   11.19519138308926
C        24.62136567114047    6.15364772306312    9.82726717001514
H        23.98364089824663    6.47272260195560    9.02853286091021
C        25.89087321606305    5.61809745019575    9.71912753344474
C        23.11408405827049    6.68513950693977   11.86396747905928
H        22.32839495402346    5.93422210327174   11.77891807666807
H        22.75621196632748    7.59332538217937   11.38273780573647
H        23.29326189913688    6.87672031750307   12.92254737086478
C        26.67126438478839    5.38956968755914    8.47607271233755
H        27.60005887302271    5.95528939123643    8.51038834209806
H        26.08979745729351    5.72313148268433    7.62106369053837
H        26.91476375176282    4.33655376985695    8.34845841057471

