55
CSD_code = PIHFER | q = 0 | S = 0 | Stoichiometry = C20H32O2Zr | MND = 12
Zr       -3.50645344069262   -3.87552114524828    3.56657658128072
O        -2.64176088403013   -3.04992422439202    5.06662551025706
O        -2.64605807013582   -2.69841032011157    2.31988147491165
C        -1.48653245724830   -5.22225552671443    3.06638065297231
C        -2.51143450280300   -5.63123204429294    2.16654502693805
C        -3.51535273014765   -6.31341271238971    2.91073471241736
C        -3.11107658860104   -6.30344190610380    4.27838219889107
C        -1.85651780905644   -5.64670228446619    4.36748941670012
C        -0.21871177160534   -4.52813069456687    2.64644200468943
C        -2.45193909462029   -5.44589324808264    0.67338714039695
C        -4.53616300533832   -7.23933864131495    2.29940985408639
C        -3.73261899190934   -7.03909264287780    5.43621154886264
C        -1.05063603316625   -5.54719452105883    5.63439183718571
C        -5.40804382085836   -2.41866936148358    2.70602071078049
C        -5.86886053118003   -3.75549010085634    2.58472972417725
C        -5.97736857276160   -4.31143203214231    3.89336706285707
C        -5.54862915793204   -3.31536087032364    4.81502035550570
C        -5.19974020206745   -2.14600771958889    4.08196389341030
C        -5.28496225752085   -1.46510905420233    1.54825489103652
C        -6.36104034980660   -4.33383261257993    1.28443012469108
C        -6.79410242905005   -5.51768155062815    4.28277918755494
C        -5.55334674762275   -3.40951442941052    6.31770984055440
C        -4.75640288335991   -0.85262314473385    4.71181130873476
H        -1.70778869968639   -2.87653043146216    4.89025598116277
H        -2.64014150103808   -1.78563225073913    2.63658510402882
H         0.38712879525228   -4.25186626529864    3.50869257930357
H        -0.45709433826251   -3.62407592293060    2.08005594206230
H         0.38007558033578   -5.18129110173612    2.00739766005805
H        -3.33735015436871   -5.85618318868815    0.19066781103663
H        -1.57781846058829   -5.95449633697104    0.26074876537857
H        -2.37029223875080   -4.38376604968925    0.42531782620298
H        -5.27955994702965   -7.55422074420579    3.02695849023135
H        -4.03300929242856   -8.13956483648335    1.93459533936421
H        -5.04841368341895   -6.78618767116406    1.45298142725712
H        -4.58924411190633   -7.63020895420823    5.11943407310685
H        -4.04629406383174   -6.35163476947801    6.22715246944308
H        -3.00446089576430   -7.72652564852343    5.87246464374480
H        -1.58597444866843   -4.97474440538802    6.39617396427500
H        -0.08995257887450   -5.06850186130035    5.45359106669129
H        -0.85731188867816   -6.54419503861665    6.03684677691716
H        -6.22608104759162   -1.42042498106041    0.99624608231365
H        -4.50264139747503   -1.78578135222309    0.85504398970256
H        -5.05107321241469   -0.45911213005372    1.89165422119548
H        -6.79201542396741   -5.32274023447496    1.42388243039739
H        -5.55701792243631   -4.39743000673788    0.54608983333181
H        -7.14020673074615   -3.69362094575809    0.86384756390530
H        -7.02380160813920   -6.13620578721423    3.41881681506966
H        -7.74512594602147   -5.18608552903308    4.70860202515925
H        -6.29849931501081   -6.13410082047965    5.03085576296567
H        -5.88286026424606   -4.39363348506223    6.64684222344546
H        -6.23073796481808   -2.66655288760570    6.74456503889850
H        -4.55211527912068   -3.21759419492977    6.71371407905626
H        -4.48541719509710   -0.11543086696702    3.95683215359816
H        -3.89248562745682   -1.02865982485708    5.35843384152499
H        -5.55756680623479   -0.43183068908865    5.32380896028116

