38
CSD_code = PIHFAO | q = 0 | S = 0 | Stoichiometry = C11H21ClO3PRh | MND = 6
C        14.81470717959441   19.42759707696650    6.33861785857698
H        14.66016219025631   19.36031610314327    5.25179579505213
H        14.15296236200836   20.20367479308782    6.74006660294156
C        15.35985967826232   17.92088213954711    8.68891939382961
H        14.99724330335608   17.17260681341020    9.40265434917074
H        16.41054959557784   17.69788066026476    8.46419524334736
C        12.68150239027212   18.18427905591869    7.78707476181155
H        12.76089322953282   19.07002023482550    8.43371429810541
H        12.00262527151929   18.40796173332171    6.95935416075340
C        13.25703754331237   14.69310561120080    6.32762755119877
H        12.86004981819888   15.00232634827873    7.29284121843582
C        12.93145092753555   15.48869183554748    5.23303454395361
H        12.28007331870424   16.34390881484293    5.41588597169573
C        12.92111894510371   15.03133639862628    3.79341128155148
H        12.86606874339008   15.92073198368319    3.15955514843924
H        12.01516862440221   14.44484932468950    3.60629964206533
C        14.16949235298296   14.21798577876198    3.40166775762095
H        14.00486114071959   13.15410684556851    3.57445942173501
H        14.35125259091101   14.34832703553593    2.33312192084861
C        15.39696279213987   14.65999301858123    4.16503099195639
H        16.13573230955134   15.20250380211759    3.57398977047606
C        15.82147070406476   14.07418160672710    5.34205910139955
H        16.87820315205475   14.15421295791919    5.60131716016154
C        15.09864279749858   12.96962403755351    6.07553791271949
H        15.54194985114491   12.88149607478382    7.07098722840969
H        15.27589406050856   12.02090779806380    5.55755621732952
C        13.58545849254917   13.21952246784557    6.22332721047558
H        13.23509403610217   12.71311509962923    7.12458210577566
H        13.04089557095799   12.79035627849416    5.38168654725270
O        16.12736995713532   19.79764901483400    6.64864732186238
O        15.19515057933648   19.18212685001325    9.27278162210273
H        15.65891805749463   19.81735846740103    8.70524805338621
O        12.13245786478853   17.08961688697704    8.47455534711481
P        14.37402578270487   17.77349938842771    7.10890495245252
Cl       16.93073212799689   16.99266633574790    5.77578682367047
Rh       14.90640721455775   15.96423970774825    5.83463441591888
H        16.71168004260664   19.09934697310035    6.28593977059624
H        12.63867540110343   16.95339464680119    9.28383052561188

