45
CSD_code = PIHHUL | q = 0 | S = 0 | Stoichiometry = C17H19O8V | MND = 6
V         8.38080762174731    0.05040193152715    4.52291595456528
O         4.06294113975931    0.37343946008597    4.87309086818370
H         5.00071887150994    0.07248151217870    4.75638348304257
O         6.48893630344867   -0.25011310496579    5.42992018327715
O         8.97291853651118   -1.20351815326055    5.57143415579587
O         7.61928960581391   -1.31819723997419    3.41668317519973
O         7.22092486223286    1.20443684034517    3.46538111765869
O         8.55453462926407    1.38310586559429    5.62403208661283
O         9.61555774246633    0.25985369668009    3.65707192756058
C         4.91920638954454    0.28861486654539    7.12517695563402
C         3.88205426374224    0.50182223947447    6.20444764375261
C         2.61948516080457    0.86603565305715    6.67152226402382
H         1.83450563543899    1.02660803403132    5.94853084030124
C         2.38800181608518    1.00805105836179    8.02384346720235
H         1.40299326142665    1.28636552019124    8.36913007171029
C         3.40978725204554    0.79393028628227    8.93864888701898
H         3.22455325679134    0.90449678220467    9.99631996723286
C         4.66319002576008    0.44033248460756    8.48512226984657
H         5.47961591945802    0.26959659703230    9.17151972633082
C         6.30870176886327   -0.06816803626932    6.69156507154357
O         7.21498352615388   -0.15988409401199    7.51790368878162
C         8.88232144308773   -2.86896621938387    7.25377926992328
H         9.96689675405199   -2.82686252212593    7.34214116278084
H         8.52642705438318   -3.88416594553044    7.39414020546115
H         8.46306985590223   -2.21686936489230    8.02230862253131
C         8.46269984267088   -2.30436305875865    5.93005426790155
C         7.57930001382860   -2.97380772011640    5.08890615183853
H         7.20852266680099   -3.94713430626827    5.36793970665894
C         7.22866485866586   -2.43330416797542    3.83296867758138
C         6.34828750669599   -3.25200467036047    2.92153373270377
H         5.32958097129552   -3.23384358380304    3.30669417314319
H         6.68156413365625   -4.28565360192451    2.88410105700799
H         6.35511088733163   -2.81852099119980    1.92425030446165
C         5.48263089358992    2.74220672922734    3.01254698186664
H         5.65577485134324    2.43911857583608    1.98279486107774
H         5.42785916258240    3.82405026668389    3.08737217070739
H         4.53232384664954    2.32022624759327    3.34200183906334
C         6.56747480314967    2.18261216502410    3.89452207412865
C         6.78096825310663    2.77993493156664    5.15881117630048
H         6.17538462724421    3.62036245421717    5.45683131128602
C         7.79918911653924    2.33242423116975    5.99015189890198
C         8.07164800150205    2.96020668961724    7.32543528582583
H         7.89678940055268    2.19767748101371    8.08628393816025
H         7.43228580831641    3.81780256608726    7.50604374687875
H         9.12051765818503    3.24848161458198    7.38354357852656

