81
CSD_code = PIHLOK | q = 0 | S = 0 | Stoichiometry = C36H38N2O4Zn | MND = 6
Zn        1.77597557337128    9.71372167338650   10.62670012588460
N         1.52028197786867    7.60411440593708   10.50500284056957
N         0.50990225730180    9.55279118276158    8.94657150195387
O         3.57049411608067    9.97033295929987   11.52026775462572
O         3.37510635638274   10.27538688689799    9.37729893143259
O         0.42575973015248    9.55907490042566   12.24738135988007
O         0.95382650837996   11.45151851970579   11.31311232889924
C         4.05195194586554   10.33313626642451   10.42157703194791
C         5.49618403546260   10.83830988192016   10.39292074163349
C         5.92120305938265   11.16596975453516    8.96442172943772
H         5.84543451372872   10.28276174385933    8.33497566180962
H         6.94917934912001   11.52350604319521    8.95192349247756
H         5.27485279596356   11.93298365939282    8.54606407289927
C         6.39217494157559    9.74589835865451   10.98357575790231
H         6.36579221223620    8.85361696294537   10.36054207432732
H         6.04704508387310    9.48532528517127   11.98112676967291
H         7.42085130533976   10.09654700863466   11.04512577960802
C         5.55491241968461   12.09079381027004   11.27222582466213
H         5.20117271371499   11.85522946481750   12.27267780673161
H         4.92069760217686   12.87222994313934   10.85954986243411
H         6.57678892927796   12.46183711305285   11.33216117271175
C         0.35559744793080   10.80144346653216   12.20171893453582
C        -0.45811405308337   11.57383879871839   13.24334013200132
C        -1.33535630939601   12.59939682602031   12.52259993540479
H        -0.71714901559469   13.24344968884113   11.90248350463617
H        -1.87003034855228   13.21158919525170   13.24667933867542
H        -2.06178804998042   12.09848302081697   11.88508053178384
C        -1.31459181517961   10.61783792840712   14.06872088253851
H        -2.03040227352206   10.10327441109490   13.43166883855643
H        -1.85609143927947   11.16699494981092   14.83690874626889
H        -0.68738239095847    9.86775278243321   14.54271864050859
C         0.55573704770369   12.29274337599406   14.13982370909645
H         1.19339437094845   12.93442117114044   13.53678971544616
H         1.18462759990481   11.56915780675385   14.65355528919820
H         0.03878108708258   12.89958085950992   14.88165586634878
C         1.99186243680478    6.69537908819136   11.33666517083503
C         1.53230809283980    5.37015444715115   11.29865886383265
H         1.96332974843419    4.64060254292466   11.96802158709089
C         0.56453731430192    4.98346793822033   10.39792122144473
C         0.01052977665957    5.97637368729323    9.55293365043597
C         0.53792148369130    7.28238939002433    9.65217986823346
C         3.02137712884468    7.11157579063144   12.32088372359266
H         3.33797878692249    6.27988773331589   12.94443914508293
H         2.60545882215839    7.90610080644201   12.93868034207936
H         3.88008399596467    7.54122004370606   11.80999688140501
C         0.14449762157135    3.57498688691291   10.32954515451135
C        -0.26930290229605    2.91304308491975   11.48194894684129
H        -0.31444400825990    3.45360965608313   12.41604006504257
C        -0.64381074172961    1.58309388375645   11.42740963701187
H        -0.97253390964423    1.08092413283664   12.32517271743685
C        -0.59513516244590    0.89510728380945   10.22633542541705
H        -0.88390817723389   -0.14447392962006   10.18566791827952
C        -0.17086006589472    1.54295152836422    9.07801388620916
H        -0.12284321379871    1.00760019667474    8.14121875244460
C         0.19374874128158    2.87593694030271    9.12597584502177
H         0.54165444832086    3.37652441338275    8.23380031192539
C        -1.06984574428055    5.72490751467696    8.66377633218607
H        -1.51466291263541    4.74135706350164    8.65943357523707
C        -1.55046593183200    6.69771311930513    7.85170210416165
H        -2.37952105144342    6.49683053140771    7.19022157439190
C         0.00963872574761    8.31891050940836    8.80895255858457
C        -0.99834775150136    8.00731269757287    7.87061248453235
C        -1.44190540657345    9.05172870758742    7.02156476278770
C        -0.88154512328359   10.29985474366177    7.18180493429222
H        -1.18593829075845   11.11049224926244    6.53651700756618
C         0.10353084707104   10.52792174312718    8.15602849375225
C        -2.44855564536403    8.82944832494253    5.97103562789598
C        -3.58093605817085    9.63629223002391    5.90845451212456
H        -3.72904854137007   10.40067790863004    6.65734182859836
C        -4.52015725479854    9.44648376402181    4.91150383848846
H        -5.40024214481344   10.07140382184063    4.87727709162216
C        -4.33237314373455    8.46022702205127    3.95748066392918
H        -5.06450446971663    8.31521094648371    3.17727582333109
C        -3.20035135838758    7.66355232647199    4.00386017900283
H        -3.04517206570895    6.90005782102506    3.25588195899622
C        -2.26421432226039    7.84279732269679    5.00568019606077
H        -1.37192607349917    7.23399225116980    5.03090859492575
C         0.74078070681400   11.85742548773343    8.30499178694637
H         0.39585693336865   12.55645584347554    7.54831455942180
H         1.82081610041116   11.73280495605420    8.24812439156482
H         0.53562047526311   12.24783544279098    9.30029931892589

