61
CSD_code = PIHLIE | q = 0 | S = 0 | Stoichiometry = C24H30CdN2O4 | MND = 6
Cd        6.50595868708231    2.05280711410215    3.50651241861028
N         5.69791952650580   -0.07114324059340    3.02734220615216
N         5.36249723285760    1.28477200271449    5.37773564946215
O         5.09307449578568    2.87154396618781    2.00288155413515
O         6.08945635204058    4.17578781605326    3.44929957607274
O         8.32857166806716    1.83973531945256    4.75506152101116
O         8.45327095968357    1.85268804792956    2.57053637253918
C         5.33802741253068    4.00798482296407    2.45872870979912
C         4.72802864960691    5.25098525448031    1.79726981892655
C         3.65902410810234    4.85148957406446    0.78377237132665
H         2.85112418953521    4.31520683006860    1.27612062908540
H         4.08418325727624    4.19794405335480    0.02673170727946
H         3.25157405055746    5.73734131737513    0.29994836332932
C         5.88010840954485    5.98099858592503    1.09769632007501
H         6.65708639674801    6.22283147508193    1.81909832343342
H         5.52032233973086    6.90151069677853    0.64047541168305
H         6.31257403935164    5.35026592014456    0.32374932614504
C         4.13080932621114    6.14552682336249    2.88573567627718
H         4.88738943429025    6.37276379744961    3.63265500616972
H         3.29837479133230    5.64417945377649    3.37624552275799
H         3.77004165831619    7.07629310880565    2.45162560537725
C         8.99645581083172    1.80915765786902    3.69957478270700
C        10.52801849122288    1.75946375798404    3.78458826986849
C        10.98145467322249    3.21797839518312    3.92636878280269
H        10.65161551334531    3.79814936603787    3.06731043742954
H        12.06734961123118    3.26965212285228    3.99124136068975
H        10.55299789657816    3.65721995776218    4.82443365363460
C        10.95624188933018    0.95597069068777    5.01170322101050
H        10.47665970733856    1.35431929468059    5.90180020386332
H        12.03653722057628    1.00524826162063    5.13555836151673
H        10.66338365347638   -0.08663871951158    4.90498898005278
C        11.11105300619771    1.15119456590052    2.51049951774883
H        10.75546290786064    1.69681440095308    1.64047424909214
H        10.80487287057431    0.11171868958564    2.41053633679729
H        12.19835224664598    1.19421748017170    2.53791475519837
C         5.26680220999973    1.94845174764261    6.51285296184004
C         4.67474876461377    1.36393923001990    7.65060474083426
H         4.60333123427225    1.93354309415944    8.56455312150404
C         4.19736957373534    0.08230285126119    7.58489008485664
H         3.73366044752892   -0.38633735830506    8.44148797059196
C         4.32095618378446   -0.64090978896737    6.38486475947728
C         4.93037108654847    0.01926349675626    5.29373213652128
C         5.83082422180043    3.32270470733873    6.55432630557015
H         5.62108013627516    3.81548516400458    7.49939434404397
H         5.44338315693246    3.91570824780813    5.72587686522948
H         6.90954986339600    3.25394958219311    6.40271193140565
C         3.86343734001642   -1.98027158260681    6.24426318881535
H         3.40030587235787   -2.45370675939276    7.09766095083656
C         4.00448387944359   -2.64255219626019    5.07101337359651
H         3.65422078356696   -3.65845562557585    4.96048615161979
C         5.09656906160051   -0.69136928150278    4.05124604954902
C         4.62186891818032   -2.01896487365640    3.95174364652229
C         4.79279454496825   -2.67047725813742    2.71679236695703
H         4.44671561121781   -3.68803888038027    2.60154897239867
C         5.38876344367848   -2.00330663460664    1.68034251594707
H         5.52136776868818   -2.47956569658595    0.72092340885347
C         5.83810306885012   -0.67983923672136    1.86597898534886
C         6.47090436914323    0.08515800589849    0.76118047138411
H         6.52246934825571   -0.49860332613392   -0.15389877405964
H         7.47105157112088    0.40370160879054    1.05941860020792
H         5.89649505642919    0.99771210170556    0.59418986808831

