81
CSD_code = PIHLUQ | q = 0 | S = 0 | Stoichiometry = C36H38CdN2O4 | MND = 6
Cd        1.91861309509646    9.77295782284211   10.45782247531099
N         1.48975622201854    7.50953493148120   10.23645048703792
N         0.51266219184164    9.47786864243077    8.64993015028692
O         3.91164184614895   10.00734418531776   11.26717421534314
O         3.57096272882187   10.46470875814874    9.15495235937176
O         0.60361523548436    9.61029008492218   12.24547115214784
O         0.89806278157524   11.52810117073937   11.23076526361513
C         4.31122821349088   10.44223749588659   10.16087268639527
C         5.75400941373838   10.95755826149128   10.06910950663977
C         6.10517854005317   11.32652248299526    8.63048022272198
H         5.42664350867954   12.09137801193904    8.26184784008514
H         6.01555411324418   10.45720100138298    7.98348374158636
H         7.12536229120461   11.70274885881230    8.57853692592980
C         6.69034986274350    9.86290643544000   10.58757124844483
H         6.39130201530784    9.56665871428584   11.59009643793639
H         7.71577733461439   10.22738978224234   10.61653084265276
H         6.64967975789489    8.98892844627315    9.93988509759211
C         5.84385851166158   12.19032343194188   10.97457770074819
H         5.54652932216095   11.92690835658636   11.98677400729087
H         5.17995581539656   12.97331021350367   10.61392398886507
H         6.86309907810687   12.57341077429649   10.99054198499636
C         0.40018988857042   10.83804255234662   12.15258422611918
C        -0.46668003998232   11.55224100997234   13.19948189879699
C        -1.41508100758019   12.51924602593283   12.48853656832565
H        -1.98261789111513   13.09447730130251   13.21802345959242
H        -2.11231932870146   11.97241682967576   11.85612947889392
H        -0.84577336913859   13.20272509244214   11.86368091680255
C        -1.25334555744140   10.53864325938303   14.02628624147136
H        -0.57500425398921    9.83166531197603   14.49618493393876
H        -1.93613425236288    9.97879438766013   13.39093628117229
H        -1.82747146304702   11.04839733219675   14.79804710534207
C         0.50008026994583   12.33432150269728   14.09600433927239
H         1.18326738968159   11.65280032346878   14.59830096370844
H        -0.05330734126658   12.89534048566917   14.84778122345605
H         1.08485999499166   13.02716021259321   13.49540340698806
C         1.94421737939177    6.59758901967985   11.07388861502554
C         1.46168527054955    5.27991662938109   11.04602798841937
H         1.87663896811392    4.54451238793310   11.71927716345413
C         0.48527822965477    4.90979586375558   10.14648514516194
C        -0.05014073035425    5.90687298720853    9.29364226639832
C         0.50338426924059    7.20428935993838    9.38155925653081
C         2.97591196942312    7.02095828200505   12.05813301992255
H         3.36904871867487    6.17522517217675   12.61632323462349
H         2.51890409175942    7.73683839048374   12.74508187111801
H         3.78670975355909    7.54851839922884   11.55543808148063
C         0.03245155939764    3.51045431009320   10.09094377520962
C        -0.40484700389081    2.87317598428987   11.24854484000865
H        -0.44181916167394    3.42604613014690   12.17580090577243
C        -0.81223330558454    1.55244003474059   11.20772217209572
H        -1.15887290912582    1.06976570868758   12.10942564364191
C        -0.77333807999312    0.84886099143600   10.01537660903554
H        -1.08785071327143   -0.18358464643864    9.98539518222557
C        -0.32593509144511    1.47187514542610    8.86209169802373
H        -0.28588088141974    0.92413034963717    7.93211324279699
C         0.07150321210071    2.79592008115972    8.89624689783372
H         0.43635690415240    3.27698931981236    8.00007968076130
C        -1.13888334233864    5.66894387520786    8.41064545707034
H        -1.59763289991520    4.69176665097720    8.41041138873396
C        -1.61399236280130    6.64841351732517    7.60361246166205
H        -2.45366460976517    6.45886605976830    6.95219105468798
C        -0.01102210053089    8.24997296717081    8.53148716509090
C        -1.04447100535204    7.95109974049268    7.61479148517057
C        -1.49975744973723    9.00256380317337    6.78057585561864
C        -0.93361447104587   10.24917126394401    6.93614067131075
H        -1.25717201271463   11.06628478853075    6.30843391530063
C         0.07998420292468   10.46184731628439    7.88470361956950
C        -2.53684533593670    8.79249962670306    5.75700329385750
C        -3.67099924504134    9.59903278526333    5.73976936120277
H        -3.79618886476184   10.35370558568139    6.50258054670305
C        -4.64060524470668    9.42087592481137    4.77014058405082
H        -5.52167818938355   10.04532834091857    4.77123605937545
C        -4.48189332272875    8.44679477830350    3.79851658021501
H        -5.23770786894438    8.31093035767913    3.03955313824687
C        -3.34877292202121    7.65031135010567    3.80008002366194
H        -3.21677899205732    6.89601480242237    3.03845902826467
C        -2.38218094274420    7.81773201680365    4.77470693855438
H        -1.48996928635882    7.20828544915124    4.76575531181856
C         0.71531922153357   11.79492720067720    8.05154434749532
H         0.36691269782997   12.50115501328551    7.30259389900536
H         1.79859772239911   11.68330527661945    7.99391335774202
H         0.49713925709182   12.17512211763981    9.05107778718436

