69
CSD_code = PIHMOK | q = 0 | S = 0 | Stoichiometry = C32H28N4S4Zn | MND = 6
C         9.27975628417088    9.11009601004099    8.71000345608156
H         9.87669751506341    8.23154399083886    8.98070220767221
H         8.63036790905003    8.81522207479980    7.87836698119090
C        10.17693186336722   10.26312690887153    8.28017394758267
H        10.51433670130153   10.08150727612061    7.25944740123551
H        11.05661345635814   10.32437590592290    8.92506754450471
C         9.39619536822030   11.57298734015880    8.38558816665172
H         8.46538649359028   11.49145951337612    7.81774624608623
H         9.97007281437139   12.41152534806661    7.99028544483930
C         9.11398212821718   11.75834411783679    9.84376274953385
C         9.35807032554981   12.93909030904671   10.52277244081597
H         9.69476521902696   13.80470585918289    9.97029699564738
C         9.17047985355958   13.01643997679042   11.89205733788504
H         9.35028050368315   13.94637065526232   12.41038916929226
C         8.77497425139092   11.89158193665379   12.59511004601280
H         8.65734478329381   11.93570202940777   13.66740562659186
C         8.53516126447759   10.70184856251671   11.93308056890633
H         8.24100132649831    9.82412411054945   12.48547993841665
C         8.67399919733075   10.63630398351494   10.55183998865082
C         7.35058164552017    8.66705931484831   10.07239357217254
C         1.89994481686648    6.46082525994361    6.07959992233918
H         2.18095365517837    6.32804424384013    5.03018155499187
H         2.06487557235474    7.49848802085146    6.36774314207822
C         0.45123196174157    6.03879617134158    6.30209040956756
H         0.24422355393423    6.07151626740141    7.37385886305628
H        -0.22685126262964    6.73131043994653    5.80246066350607
C         0.26151529234365    4.62205631943880    5.76816053509174
H         0.09211139358430    4.66007312123431    4.68674037033048
H        -0.62355578326106    4.16308414742179    6.21492437508299
C         1.46162697978203    3.74566658794190    6.01533381355910
C         1.40250581518848    2.40537183834753    5.65345741949035
H         0.48014039038813    2.01989077648741    5.24174844804168
C         2.49108009794893    1.56947809531461    5.80800676131228
H         2.41933028749574    0.52961418317850    5.52638652697507
C         3.67795593638601    2.07927296781259    6.30859204741869
H         4.54530396326923    1.44456899520052    6.40755210689212
C         3.75896691301267    3.40744993563749    6.67290703550226
H         4.68735509624610    3.81009019303000    7.04365545652766
C         2.64932603589785    4.24099679228210    6.55856178590198
C         3.34780707019428    6.06760699710601    8.00402582859390
C         2.21051991068767    8.13613734535818   11.44501656658128
H         2.05926611242450    8.50798048355530   10.44069937458028
C         1.29040378359114    8.40687736733240   12.46200458665350
H         0.41235117940254    8.99524878175745   12.24755080930175
C         1.52966665999852    7.91470808000572   13.72166410014627
H         0.84429617231111    8.10144756798949   14.53617948448002
C         2.68888644696691    7.15564611067051   13.95365347627035
C         3.55561904041254    6.93857379087496   12.85940277849996
C         3.01330693380395    6.60920576650267   15.22819135403675
H         2.33353351212938    6.79105013096205   16.04785421675999
C         4.14165445050338    5.88256777856615   15.40874998828573
H         4.38602041742645    5.46823246225511   16.37603472896588
C         5.04063252932219    5.64451588355715   14.33018552884090
C         4.75321592462056    6.17304128418350   13.05195821423943
C         6.22326594605153    4.89937876454752   14.47228309494192
H         6.47563448616827    4.48087402051534   15.43625942645238
C         7.03741531711010    4.71704266953874   13.38127332194608
H         7.95143953963322    4.14900601659945   13.45261921674758
C         6.66610562170801    5.28507738028417   12.15897232238165
H         7.28302628701715    5.16953055484219   11.27833842044800
N         8.41547973389757    9.45372041390585    9.83550298840469
N         2.73769229035470    5.60594277937918    6.89889993346991
N         5.56870306827519    5.98689016978035   12.00634308054113
N         3.29689572142072    7.42756310658563   11.63974641797586
S         7.25337651460216    7.17742653466932    9.26145623116868
S         6.09544238688129    9.14598570849076   11.10758849355803
S         3.55399629313420    7.74357638169298    8.20843592771867
S         3.85739365034387    5.01295285176248    9.23133482568672
Zn        4.91811337984895    7.06908323627481   10.22874419484651

