62
CSD_code = PIHMIF | q = 0 | S = 0 | Stoichiometry = C25H29N3O4Zn | MND = 5
Zn        4.02841659984256    2.56694102967936    2.84601841395833
O         2.37606287532384    1.93496913719921    3.74034112724066
O         2.52111737143705    1.38641762213576    1.63293734603428
O         4.89643360283170    3.50683342046803    4.29906461805760
O         6.50249435601839    3.69177223328073    2.80146360289615
N         5.19674776880608    0.80159258317486    3.02553926230178
N         5.03565853402831    2.49136838489437    1.07655593649150
N         3.32568786345493    4.28744756930871    1.81692730801918
C         0.58171340976303    0.62592413105008    2.86239183139321
C         0.16992421215311   -0.00690397457381    1.53657494646480
H        -0.77829487256282   -0.53013993615028    1.64698599285676
H         0.92776892894697   -0.71194550609827    1.20434408318051
H         0.06629639053496    0.75737950155045    0.77046443592801
C         6.90924558751114   -0.50128206114465    2.02136369132936
H         7.57035494544848   -0.68846207481219    1.19077588803289
C         6.94949560618150   -1.32004519714503    3.13711298340131
H         7.63972962904539   -2.15010219340252    3.17880595917695
C         3.46069242410718    5.53347536792692   -0.20031707697018
H         3.87883836274308    5.66859302477767   -1.18464479397837
C         6.64389271051114    1.45367931455097   -0.30202358422407
H         7.35196597425803    0.66192830958077   -0.48504330665057
C        -0.46513153244981    1.64484027946913    3.32011528982380
H        -1.41630231846348    1.15017994240357    3.51034668881328
H        -0.61374110771562    2.40526999469817    2.55568932554419
H        -0.12811816434854    2.13139560546796    4.23176867157699
C         0.76348143049692   -0.44945081179657    3.93716797751972
H        -0.17953107838054   -0.96066071543323    4.12423551579980
H         1.10822635656666    0.01016242475118    4.85985005879662
H         1.50139438883460   -1.18340232508511    3.61824045436490
C         6.92144891116096    4.51391004528232    5.03471611134423
C         4.83512118643163    3.44967484043152    0.18950619540810
C         2.00044486388221    6.23869054668674    1.55192589716288
H         1.27167989297999    6.91819368869159    1.96432873246243
C         2.43659630557047    5.14267275579759    2.28279600011272
H         2.06617088296111    4.93541552733916    3.27700942250239
C         8.24521074323472    5.00227394852849    4.45402090096818
H         8.06678451855547    5.74976029767455    3.68476457404284
H         8.78310663982103    4.17530792801903    3.99709392638704
H         8.86289639516252    5.43973520605095    5.23658495519536
C         7.16849997608793    3.44429663526827    6.10262967552358
H         6.21724939776832    3.07154186922469    6.47384255323729
H         7.73665322957965    3.86146437531368    6.93299157659085
H         7.72751797844065    2.60987680986177    5.68190389565801
C         5.23276563587002    0.02463127059575    4.09035710818178
H         4.54353188934057    0.28567316237632    4.88125174557976
C         6.05639684366902    3.85905593305601    3.93663970552927
C         2.52636391194829    6.43270438625003    0.28455812854864
H         2.21422392950980    7.27247745322788   -0.31905974625761
C         3.84520138869688    4.45819187892402    0.59975342263732
C         6.09565338608033   -1.05684154290322    4.19638257638739
H         6.09940055041742   -1.67076174816466    5.08296798951615
C         6.13512642823353    5.67866558787043    5.63828408735003
H         5.97603020983922    6.45576860625299    4.89293075566324
H         6.67810204458694    6.10775100730511    6.47925785964632
H         5.16616419185644    5.32565216528136    5.98103130004440
C         5.54761110910157    3.46645503969535   -1.00965735225658
H         5.40854213747096    4.24733107807463   -1.73950866298880
C         6.45567829205620    2.44832977343419   -1.24823667264781
H         7.02087185895264    2.43257303981420   -2.16867831955338
C         5.90132356431836    1.51306872725232    0.87618681460582
C         1.91954854936992    1.36332219977447    2.71576088135270
C         6.01116290211959    0.56476242698401    1.99581131487820

