38
CSD_code = PIHNOL | q = 1 | S = 0 | Stoichiometry = C17H14CuN2O4(1+) | MND = 5
Cu       -1.21491017796852    1.77943836517040    7.71829900875430
O        -0.04345042245016    3.55008771487035    6.64579729706155
O        -1.73815681801295    1.13485276651365    6.14508990585357
O        -1.66633221527085   -0.02232582855508    4.29789031077070
O         0.22772495064492    0.73664849101278    7.90119704997415
N        -2.78491333204473    2.87777863204320    7.74239377360364
N        -0.91432586818290    2.51110409007403    9.44190698271512
C        -3.67932184571510    2.94427168696386    6.77473915738540
H        -3.49972371757096    2.29240438638495    5.92736158856336
C        -4.77300206342764    3.79361555268547    6.85282892986878
H        -5.48881806334692    3.82538892406528    6.04770368019859
C        -4.91413299596096    4.58897508704378    7.97987480140135
H        -5.75133122112694    5.26359955562625    8.07402725393166
C        -3.96642955144024    4.51044504368858    8.99004009450067
H        -4.05933341246473    5.12009069704170    9.87369052995080
C        -2.89570813009752    3.63429577276844    8.84551482241615
C        -1.82067073672057    3.43090007341062    9.81210218504449
C        -1.69094601901275    4.09742768736259   11.02664265588362
H        -2.41722875049679    4.83633173956335   11.32260038564492
C        -0.61555575176156    3.80108978315630   11.84990103241847
H        -0.49979730305703    4.30773756427439   12.79574674443892
C         0.30648183154238    2.84931210138233   11.44093894954506
H         1.15613239309503    2.59134697205307   12.05173207653889
C         0.11589982091551    2.22668734054971   10.21752506645255
H         0.79457772292492    1.47694722194871    9.83172740445897
C        -0.14653464416071   -0.67205370356047    5.97622053443067
C         0.46336807500773   -0.35774626103882    7.19844669361705
C         1.42681546331390   -1.25036663126044    7.70247886451598
H         1.90102692235496   -1.00641142225414    8.63990901883211
C         1.78578870160944   -2.37109922035309    6.98869982769162
H         2.54130388954573   -3.02736568293804    7.39382120281708
C         1.19029003444584   -2.66503423345697    5.76852896235366
H         1.47007607499937   -3.55156353329204    5.22320431294037
C         0.22554291707676   -1.81463580431394    5.27288610663896
H        -0.27864291789731   -2.01014190487129    4.33824694626430
C        -1.23277042487146    0.16868752218755    5.41162653354697
H         0.90243870852666    3.36498515887525    6.66030551306848
H        -0.30903112294484    3.53039429518011    5.71865379590545

