46
CSD_code = PIHNAV | q = 0 | S = 0 | Stoichiometry = C16H23BrHgO5 | MND = 2
Hg       11.12343052373385   -1.47599656759506   -1.40357270964321
Br       10.07566184066476    0.19499017536927    0.15180777550489
O        10.36655048380772   -3.98782829229087   -0.70524801104169
O         7.63251513531777   -3.16591272438706   -0.11823470577394
O         6.37515225415435   -0.80495378863975   -1.75522192828903
O         9.45280591139428   -0.54199361076093   -3.56715251391616
O        12.34075742602181   -0.15237684324981   -3.58162739645176
C        12.27726776822443   -2.92262484943579   -2.56296524504640
C        13.17752351994109   -2.47154329911836   -3.53666377985735
C        13.84779912855348   -3.36903720798148   -4.35573314045354
C        13.64019361409635   -4.72965285768886   -4.21650148629423
C        12.75398967430112   -5.18756079353539   -3.26416367137759
C        12.06679202427549   -4.29560695185590   -2.44232587946669
C        11.13089628687858   -4.92328424950464   -1.42977388831080
C         9.49242194645783   -4.59826716350634    0.21829418413391
C         8.58908474719325   -3.54223067592784    0.84045096165971
C         6.79370957854448   -2.10403500390882    0.29733114768979
C         5.84398465679066   -1.74233107277800   -0.85040794013618
C         7.45794147562425   -1.29071792694037   -2.51315301798124
C         8.15554072942666   -0.11586677884354   -3.18983977215419
C        10.14841733660839    0.40066617443749   -4.35476489008845
C        11.50226315125376   -0.19254500864658   -4.71880606688401
C        13.47558318360272   -0.99110596362838   -3.69381448360575
H        14.53806795159706   -3.00066549543528   -5.10184032129947
H        14.16515974276232   -5.42709628500013   -4.85188283770789
H        12.58380861333337   -6.24901096184505   -3.14873162253878
H        10.45355505122256   -5.61331984159296   -1.95997036763584
H        11.73172410716609   -5.52527922834227   -0.72521200543339
H        10.07245413926196   -5.10442281150370    1.00497364629198
H         8.86463296185066   -5.33911001451560   -0.29720740959330
H         8.09443614433726   -3.96027766639475    1.73136076906940
H         9.19116875175413   -2.67673224915694    1.15297085145272
H         7.38893216961942   -1.22282373548126    0.57157976657692
H         6.20993864928365   -2.41966569082454    1.17495245772113
H         5.56097347773023   -2.66723908628320   -1.37301838506673
H         4.95110500845350   -1.26283207553491   -0.44507930624849
H         7.10822147546746   -2.01943933310770   -3.25994407484996
H         8.19448800197354   -1.79945101410053   -1.87507107644395
H         7.59751015420922    0.21222592982287   -4.07676958793070
H         8.20937062475108    0.72067127045400   -2.48022425424590
H        10.29522470184567    1.33654208958144   -3.79817478802152
H         9.57851243365970    0.61341704091749   -5.27056609348122
H        11.35423309302899   -1.22889875512817   -5.04892966018660
H        11.96032249521149    0.38745632275511   -5.53318323950204
H        14.14533661750490   -0.66741976971203   -2.88856688111933
H        13.97654123710899   -0.80941335915652   -4.65467912202348

