84
CSD_code = PIHQUV | q = 0 | S = 0 | Stoichiometry = C29H50O2P2Pd | MND = 4
C         2.87643286549656    5.70162358240455    3.01863175904032
C         5.34887424093450    5.85277356161597    0.96195536693691
C         6.82548346316305    7.17660782688632    5.72272884351050
H         7.53496765286033    8.00229299893959    5.83454108047966
H         6.31961599552510    7.03177668855239    6.68037024733713
C         7.57369756503778    5.89304367955945    5.34836710491713
H         7.78035701331148    5.89857011326297    4.27399104483235
H         8.53418270481428    5.88567858373764    5.87402268177244
C         4.41025130821345    8.73696444178714    5.51103802400611
H         3.80863728004122    9.29683887163970    4.78320204939900
C         5.07453824141028    9.72869093633476    6.46271611696380
H         5.67027684922658    9.19640105749033    7.20624773436755
H         5.73772737734626   10.40252258255656    5.91759736363056
C         4.00477399229178   10.54842023261317    7.18338972170433
H         4.48156889009566   11.25551653875856    7.86623258672785
H         3.43420097090182   11.12432425308441    6.45093083188088
C         3.05770239012512    9.63589367895081    7.95650646922654
H         3.61983703524886    9.09790208774715    8.72402832401647
H         2.29425516375561   10.23288209344235    8.45967697181702
C         2.39917706688014    8.63332135795997    7.01352855858114
H         1.78573665205900    9.16989601397550    6.28623504043574
H         1.74288309341258    7.96595964189426    7.57639220076844
C         3.45796827682611    7.81909219406830    6.27730672885496
H         2.98255351106027    7.13327318674641    5.57076930376875
H         4.01941711572271    7.22228936947880    7.00098500601491
C         6.46223192500744    8.97749334211895    3.47864795603682
H         6.81371152259350    9.78038308848754    4.13763005633049
C         7.65689012895049    8.32499992485931    2.78419189308259
H         8.39224377534516    8.00222326063816    3.52505378032848
H         7.29588797861296    7.43332510738658    2.24584833258020
C         8.32730410716518    9.27149045363134    1.79353109684862
H         8.73548453556596   10.13197479286127    2.33101740395939
H         9.15867314625905    8.75843596907454    1.30475899544284
C         7.32434684571262    9.75550983045510    0.75361321258090
H         6.93991557688635    8.89949958563412    0.19422581543624
H         7.81098508663846   10.42996425563185    0.04599615613343
C         6.16893393816005   10.46515516975942    1.44860176583642
H         5.44121556695520   10.81009104020468    0.71100284795649
H         6.54942592872370   11.34282615699664    1.97869782476814
C         5.48532456038636    9.52935193595452    2.43947938040989
H         4.67146278475234   10.06366165194618    2.93465751320867
H         5.04622549624403    8.67643887320566    1.89885566402289
O         2.28868072021650    4.87204669702915    2.48724468488066
O         5.53373371886753    5.74865230409233   -0.16638923117481
P         5.54779993653346    7.68415460179683    4.46999993676757
Pd        4.95742309357929    5.86014885267179    2.84261421526077
C         6.81398771598452    4.61071018393374    5.70456038497059
H         7.51743238277792    3.78248123808854    5.83578838462573
H         6.28064454630486    4.75513067632703    6.64712725860831
C         4.37312913652547    3.09222139719003    5.41085090255007
H         3.75896747194173    2.57401990294396    4.66156112880229
C         4.98038164375947    2.05359957914135    6.35107860772251
H         5.58615618719976    2.54713428126329    7.11335096440412
H         5.62323600473053    1.36372233440698    5.80182043725276
C         3.86642694310505    1.26301707217457    7.03680088542370
H         4.30355402349054    0.52517775358586    7.71350830800453
H         3.28869681295669    0.72350844499439    6.28252523778040
C         2.93912364635555    2.19468638853942    7.81103022492817
H         3.50448430471988    2.69258103636946    8.60282762708500
H         2.14189647103412    1.61701521819553    8.28316883008101
C         2.34149877519974    3.24409711368808    6.87852262848212
H         1.72364216590263    2.75038914782736    6.12496964789842
H         1.70041027725063    3.92502922649652    7.44247886271051
C         3.44951698387887    4.03091655414080    6.18679134049842
H         3.01818407621261    4.76228052010272    5.49636723467530
H         4.02276414173133    4.57988373109568    6.93838892883234
C         6.50661993165681    2.79722599767725    3.46137195508631
H         6.84513951834734    2.00656606102711    4.14169036954243
C         7.71612997477977    3.43910465008009    2.78234098602835
H         8.43116075328066    3.78155104214376    3.53435045024897
H         7.36634202676698    4.31752938953729    2.21595099189776
C         8.41239046141877    2.47241877798502    1.82983401117836
H         8.80820423013220    1.62478267197693    2.39617306894897
H         9.25473143711488    2.97641507940862    1.35073850204179
C         7.43572432257895    1.96447070738108    0.77618974046066
H         7.06584971902868    2.80729294540795    0.18798637364747
H         7.94010184086111    1.27435397372153    0.09676423260955
C         6.26268974608381    1.26942141682472    1.45648238458177
H         5.55355041875665    0.90966732646646    0.70810948227216
H         6.62857010535735    0.40299786564608    2.01462268700467
C         5.55442437751945    2.22518410257114    2.41038000281886
H         4.72795684944204    1.70111546200977    2.89603581783164
H         5.13028822006899    3.06620632803924    1.83981587133345
P         5.57857526704860    4.10891193377939    4.41197478547562

