107
CSD_code = PIHTIM | q = 0 | S = 0 | Stoichiometry = C58H42N2O4Ti | MND = 6
Ti        5.73062932304771   10.39811035255414   12.16020967181019
C         4.35058290447242   11.51389645056042    8.43527716837125
C         5.70592367127868   11.27972110963254    8.21173216484833
H         6.11582958268025   10.31638956165613    8.47039870330123
C         6.50659732166017   12.25387864964983    7.64421859835804
H         7.55452363086090   12.05514658294204    7.46803732028569
C         5.97017247145849   13.47914402882422    7.28539354731390
H         6.59613034272169   14.23913429494581    6.84078343929053
C         4.62164184354136   13.71923203303517    7.48976493693125
H         4.19216648951856   14.66875214491041    7.20219649779351
C         3.81934526470145   12.74725608542921    8.05669264761761
H         2.77089297435463   12.95212689577409    8.22132662653940
C         3.49176195469713   10.47764536178770    9.02833482844534
C         3.96988445811136    9.64001910051692   10.07255247508232
O         5.19263648412690    9.75693838281286   10.54628748506916
C         3.08642205196734    8.66149791005934   10.59217271675418
C         1.79295095077235    8.55199416893073   10.09713962568108
H         1.13421739282131    7.80871971006257   10.52352992724755
C         1.33835946189378    9.37888786330337    9.08693791688349
H         0.33177839372248    9.27820241203765    8.70975002383748
C         2.19138593390065   10.32742909400995    8.55839220058895
H         1.85472728105954   10.95327572483681    7.74445443702143
C         3.51800475698664    7.70781385127824   11.63412895460241
C         4.14843977688679    8.14952737308712   12.82385455024265
O         4.44168480792446    9.42160387064561   12.99680124510838
C         4.44895973799736    7.17642871897916   13.81501872434905
C         4.15350207973244    5.83710433892038   13.58655037034472
H         4.36831111792722    5.11549678087907   14.36165632928165
C         3.56560034451629    5.41967710338283   12.40863996572435
H         3.34633611690258    4.37489627015928   12.24744736416029
C         3.24551877613778    6.35841582361199   11.44580163336772
H         2.78254279249254    6.04578502524222   10.52051420631884
C         5.07434587937850    7.56386294714315   15.08859348555925
C         6.03867991981223    6.75169680483381   15.68566722598617
H         6.34915995735039    5.84020272352238   15.19439504481957
C         6.61430883430324    7.10658152065990   16.89086711874733
H         7.36027583444737    6.46501832492329   17.33886866762696
C         6.23513534835013    8.27664770333779   17.52737544962896
H         6.68414585591586    8.55217092348610   18.47054258320656
C         5.26827600307477    9.08387291340408   16.95188250641136
H         4.95451191786456    9.98718560243322   17.45612325062519
C         4.69215976986878    8.73169923139083   15.74507781184893
H         3.92201471305799    9.34570680493330   15.30563882431144
C         4.08259316333686   13.33952942684839   14.53517297382727
C         3.78513018726355   12.17740231371831   15.24394830799952
H         4.59272570190111   11.52196789336757   15.52900616876847
C         2.48198750577801   11.88180191549762   15.59972872675705
H         2.26658663335586   10.98274723619250   16.16005534049484
C         1.45079827712738   12.73994811690215   15.25634185065121
H         0.43326657956326   12.50865855511406   15.53602484728382
C         1.73501349873319   13.90384448764854   14.56179492620437
H         0.93747575408082   14.58479081122458   14.29912719422645
C         3.03674437036477   14.20275318872909   14.20707869862296
H         3.24381827577512   15.10965850707818   13.65658029927810
C         5.46877872392716   13.66764789357669   14.16911672768402
C         6.37242742079117   12.65619973709558   13.74407083181804
O         6.00450906288963   11.39517542199630   13.65596586047194
C         7.69474547727618   13.04647257030001   13.41678850873883
C         8.07028204808328   14.38187430090723   13.49403190298333
H         9.08002930213286   14.65455281012236   13.22155134633821
C         7.17754797888371   15.35684892715865   13.89804764102443
H         7.48596556452750   16.38983533784724   13.95651747479479
C         5.89008458087813   14.99119672225920   14.23802082378949
H         5.19715681817038   15.74207684222599   14.58955151512306
C         8.71860252678355   12.05532139159341   13.02845033940449
C         8.47091705119909   11.09647344245840   12.01488318584390
O         7.28707092500295   11.01380625530018   11.44420142843816
C         9.53921431104234   10.23731881917326   11.63974762701986
C        10.76877336577479   10.33675582163103   12.28164517741850
H        11.57662240471165    9.69264413521726   11.96526922157848
C        10.98485866021591   11.25900047629323   13.28661520344453
H        11.94546691641699   11.31933581315137   13.77571729082588
C         9.96111338822778   12.11492744920140   13.64730520413427
H        10.11708724948013   12.84246482079406   14.43126666642162
C         9.36534838006300    9.23415870845559   10.57835899018044
C         9.96143841171129    7.97698220370062   10.68073382230759
H        10.53785146597159    7.72794093574979   11.56059023456030
C         9.81022993301585    7.03859384160816    9.67758924575411
H        10.28004028739287    6.06972784432161    9.77386922520350
C         9.06365467763143    7.33674902155330    8.54985844124984
H         8.94653546130178    6.60259740435505    7.76606130079821
C         8.47894716192124    8.58628816560773    8.42985577506743
H         7.91230694456339    8.83021443589606    7.54213010427483
C         8.62948198382519    9.52704242281359    9.43208648221879
H         8.19680644722821   10.50965748741180    9.33047431330156
N         4.50876194577891   12.04907484924405   11.60612627907251
C         3.18822543645081   11.99159382256018   11.74784672912432
H         2.78966685372741   11.07895489512692   12.17896973623961
C         2.35332359876207   13.03685026614783   11.38452389926588
H         1.28581854618219   12.94063764974485   11.50214475777718
C         2.91902135338005   14.19986088113010   10.88690893468323
H         2.29895913065418   15.03850069906924   10.60604002424323
C         4.29714349174168   14.26360999435089   10.75624218640270
H         4.78207974943730   15.14798017910210   10.37494952791452
C         5.05244094195629   13.15729043088017   11.11241063937847
H         6.13056725257531   13.15097392092622   10.98954429428319
N         6.95879000346468    8.74225004959335   12.70736105604102
C         7.73566748129650    8.80276865552547   13.78417964911347
H         7.68256359166692    9.71787341686677   14.36506905262659
C         8.56589689873427    7.75969502604344   14.16439137608299
H         9.19301246915001    7.85939378990835   15.03583554316865
C         8.55737262231128    6.59402479829724   13.41512610357110
H         9.18017927766536    5.75588908978134   13.69161858846984
C         7.73216598044586    6.52628276075057   12.30388591890279
H         7.69007012951849    5.63943057711710   11.69209840180931
C         6.96335530373022    7.63215228608233   11.97609909188320
H         6.33380853876610    7.63563547514039   11.09226869229006

