63
CSD_code = PIHVAD | q = 0 | S = 0 | Stoichiometry = C29H26FeO7 | MND = 7
Fe       -3.80436707400655   -0.39281658265383   -4.55626982250066
C        -6.54150838870215    2.66697522976825   -3.83653343669989
C        -6.42232387467324    1.33327496548448   -3.57918556056932
C        -5.67836538926823    0.70156463958633   -4.66211214564591
O        -5.48817494572798    1.70957964972174   -5.62119409059898
C        -5.92805682831200   -0.65752273296842   -5.15877687627879
C        -5.58743925932148   -1.69601614033653   -4.28308989343135
C        -4.93047660709800   -1.45648706276214   -3.03500529342509
C        -3.95053750126623   -3.76491490128914   -2.84797163092689
C        -3.46949011439840   -4.80350433704934   -2.07467877248254
C        -3.42319425605026   -4.68579699929113   -0.69502905506407
C        -3.85543786028462   -3.51549620199063   -0.09314410765193
C        -4.33651350447047   -2.47569443024626   -0.86490423685040
C        -4.40224829243761   -2.58449645008468   -2.25547968653177
C        -5.89208265555194    2.91354997001638   -5.13362997638569
O        -5.72511636564365    3.93909692963703   -5.74058710200335
C        -8.40712812027886    3.42345673146627   -2.38540877740158
C        -9.04563068468065    4.41789529096765   -1.67062725064889
C        -8.52475494216481    5.70147463421997   -1.64563942422660
C        -7.36763974135564    5.98905713754529   -2.35090455479248
C        -6.72499677608224    5.00000256757022   -3.07043012677853
C        -7.23187455758170    3.70017660034518   -3.08334995526891
C        -7.06347092402209    0.63241617478800   -2.43581747110185
O        -6.83822056746435    0.84108425091557   -1.27204695988714
O        -7.97405905623484   -0.23757238313247   -2.89301572779623
C        -8.73769482239455   -0.96565931534658   -1.92733970387202
C        -8.11617147626890   -2.32296769015183   -1.63426221954049
C        -6.64975863047854   -0.88201306307190   -6.48318461435834
C        -7.05564825641647   -2.34901510387510   -6.66049893167166
C        -7.92482708736549   -0.02378428059875   -6.46409819708268
C        -5.76815516989660   -0.47876849324216   -7.67039110035273
C        -3.10427484313164    0.39384584500832   -5.98595119606644
O        -2.54687350500018    0.91036083514137   -6.83597061114400
C        -3.11205948750539    0.67848989459854   -3.29368561278816
O        -2.65566768936561    1.37806204170681   -2.51848730576438
C        -2.49395251395252   -1.57142473078019   -4.70935445418934
O        -1.57805417788444   -2.25192421643030   -4.79504453861997
H        -5.72728949933208   -2.72111848095339   -4.59963909475447
H        -5.31920058328553   -0.68262421075970   -2.38512202241636
H        -3.95813740913803   -3.86644273984242   -3.92386293316717
H        -3.12247724865229   -5.70896267543176   -2.55068471328929
H        -3.04477541494279   -5.49858742638309   -0.09373825942922
H        -3.81507687331203   -3.41258209086232    0.98112225687465
H        -4.66540628225132   -1.56130195991189   -0.39020185057387
H        -8.83395645428688    2.43204310228408   -2.42546206090937
H        -9.95586967988332    4.19283450386739   -1.13422041825480
H        -9.02516333945332    6.47665739700189   -1.08440158895769
H        -6.96416568713309    6.99069465001003   -2.34101306647911
H        -5.82676226006427    5.22275399550847   -3.62366760424908
H        -9.72920354273304   -1.07801033588011   -2.37323444689203
H        -8.80634754214694   -0.37009703364805   -1.01095440852782
H        -8.77218468428744   -2.88268608215684   -0.97384463583620
H        -7.97918940569620   -2.88313571299002   -2.55630679899860
H        -7.14984754175353   -2.20657629281080   -1.15027807692162
H        -7.62343181105413   -2.45246555545728   -7.58229787796083
H        -6.18368273377250   -2.99513533130206   -6.73648494034265
H        -7.68506891609934   -2.68453982808518   -5.83911660720534
H        -8.53859810534838   -0.25232919925276   -7.33206768661215
H        -8.50311282220709   -0.22512380925969   -5.56436023363631
H        -7.68284045067858    1.03474260931114   -6.49292760828793
H        -6.30528103818315   -0.64451728299932   -8.60160814403511
H        -5.49533874838985    0.56993077411297   -7.61300623979456
H        -4.85774597917643   -1.07670925729564   -7.68272051894329

