163
CSD_code = PIHWIN | q = 1 | S = 0 | Stoichiometry = C74H84IrN2P2(1+) | MND = 6
C         3.21071901194289    3.06596378804731    5.10019100851882
C         4.61505161749799    2.66063236896397    4.93896214556385
C         4.98528943678955    3.29373822290514    6.11884597397826
C         3.61107953114678    3.75725036642977    6.36322933994617
C         5.35550378166251    1.86736786403934    3.98939390798368
C         5.15911066177082    2.00475792945963    2.61697778555474
H         4.42211446183282    2.70230764339392    2.25391297048804
C         5.92907965862900    1.28135554641804    1.72816597926793
H         5.78737942470273    1.41921788573483    0.66676927223170
C         6.88576653600949    0.39365541233578    2.19226073063103
H         7.48513770111545   -0.17244548943662    1.49517766664200
C         7.07725726677773    0.23887878289655    3.55676598956987
H         7.82034384023301   -0.45359370431371    3.92275029384442
C         6.32870877088142    0.97628647988065    4.45111048853942
H         6.48214381176808    0.86271652758492    5.51453044902896
C         6.25903124387281    3.45191112376923    6.77556069212731
C         6.38273356335081    3.33856882975234    8.15865862669850
H         5.50490129698379    3.15406254768651    8.75598840332003
C         7.62484623600750    3.42307470875256    8.75537088956404
H         7.71061211096073    3.30350510070289    9.82497852186862
C         8.75612403113040    3.64695136244058    7.98799993675960
H         9.72618602666127    3.71415271480265    8.45715096659171
C         8.64041310519504    3.77760306754833    6.61247675620604
H         9.51931966528584    3.95482127040985    6.01103450406969
C         7.40565721479071    3.66995427430975    6.00607022170612
H         7.31486043769027    3.76338629466857    4.93355078584846
C         1.79424043105388    1.87499134524892    2.99206420705645
C         1.93608186154708    2.46188562251043    1.71596537741326
C         2.35455830704358    1.66499914718569    0.65811485264093
H         2.49578513375655    2.11604539639416   -0.30460941352747
C         2.60828331590840    0.31150558272356    0.79260019634116
C         2.31074494161973   -0.26132397289048    2.01789432645226
H         2.42057193330927   -1.32459583703095    2.11542607375095
C         1.87125123079598    0.46971908639776    3.11000650053076
C         1.55936100062574    3.91339201396167    1.40896816916173
C         2.52571906431872    4.90328460396632    2.06779587061388
H         2.56534715981634    4.77110853258402    3.14649965820705
H         2.21152716671806    5.92402828050301    1.85922526038286
H         3.52968578226014    4.77013201145630    1.66885065075379
C         0.11774445136829    4.13022976673806    1.88433219282307
H        -0.00017110301977    3.91678578152512    2.94383388695133
H        -0.55231557571398    3.46957795044699    1.33786000874666
H        -0.19197710135729    5.15742251178438    1.70406173117695
C         1.56612569375888    4.24089762802493   -0.09223003314100
H         1.19796990958769    5.25640227888020   -0.22599380103919
H         0.91092519142083    3.57626701926824   -0.64934989949292
H         2.56788671772846    4.20057730900256   -0.51310556109489
C         3.05930688456926   -0.56100723116008   -0.36561232846711
C         1.83952244764128   -1.35804956455654   -0.85291386443861
H         1.05177716224246   -0.68401187616926   -1.18322838681533
H         1.44093661218729   -1.98462106229933   -0.05883708704521
H         2.11995836544792   -1.99660121882090   -1.68696601926456
C         3.60421738982788    0.25940193637337   -1.53882443646446
H         4.40923419509995    0.91591476137807   -1.21692128279680
H         2.82370773695798    0.85654066184558   -2.00401294637358
H         3.99881428317612   -0.41101028904172   -2.29861524541300
C         4.15462078082354   -1.53392496064097    0.09228025436448
H         4.55522964278627   -2.06868179589871   -0.76545803284741
H         3.77047418979500   -2.27317043160015    0.78936566729199
H         4.96571142172196   -0.99580735153515    0.57647242342205
C         1.40895408525627   -0.31341966387454    4.34154169845103
C         1.20651935229988   -1.81119705377672    4.05334421712437
H         0.72977031016833   -2.27064711402687    4.91710541120084
H         2.14966538868309   -2.32754585147983    3.89428149401269
H         0.55878418871288   -1.96690255499038    3.19420072273415
C         2.45535181805581   -0.23320799926929    5.46073091790988
H         2.65564330020819    0.78770040832760    5.77104017840710
H         3.39490367681591   -0.65362092130115    5.10640280559964
H         2.12846566839432   -0.80762291136273    6.32546396158865
C         0.02637391780922    0.20162249772823    4.76623604420510
H        -0.30533968045883   -0.29879794732623    5.67361160024106
H        -0.69186920554591   -0.01176345227231    3.97667233621068
H         0.00586136694314    1.27583049491967    4.93961325578263
C         3.71574576789055    5.37956475232234    8.64806746161556
C         4.52588700787588    6.50597485967848    8.38412593471249
C         5.57274929259722    6.78312314971289    9.24856154091911
H         6.22465035398746    7.60668407747444    9.02696700629313
C         5.81790308109158    6.05337550615493   10.39997873937852
C         4.89979198856123    5.07003487873840   10.72320228784944
H         5.01783218187475    4.54911062040135   11.65323394626817
C         3.84215138256920    4.72424238954255    9.89177515343486
C         4.26102877089060    7.50414606755237    7.25402474694998
C         4.72906716632201    6.93967278812860    5.90632543344257
H         4.23028134498406    6.01062197322086    5.64770665636851
H         5.79644286654454    6.73120088554647    5.95431004568851
H         4.55798097602096    7.66496326478045    5.11303534546840
C         2.77305513588919    7.88284916772756    7.26969552790570
H         2.11233910969789    7.02020660786885    7.20788645708991
H         2.54067668113225    8.55333013442321    6.44495862891312
H         2.54601367834961    8.39718658622117    8.20176331206072
C         5.01403389156448    8.83227095852484    7.44449025055630
H         4.65918668641948    9.54347546840176    6.70102288153339
H         6.08485306428918    8.71930400023191    7.29606443680895
H         4.82735616616656    9.25798971982456    8.42725897096801
C         6.97293778054056    6.43423217329378   11.30935983729272
C         6.60445271943454    7.75135111976971   12.00929919457272
H         5.69619082166535    7.62922943104175   12.59592300409171
H         6.43813417781231    8.54488213545882   11.28503823277934
H         7.40736672888377    8.05696577553031   12.67560870360422
C         7.24811600721946    5.37528543900338   12.38129257421150
H         8.13767644803846    5.64998252855199   12.94312760920251
H         7.42033654035345    4.39971776990092   11.93269376050159
H         6.42523500656243    5.30110665920935   13.08812392568662
C         8.25444582038910    6.63350424097726   10.48848977304683
H         8.18271080788160    7.49725654014563    9.83372373718833
H         8.45659501918647    5.75725855899541    9.87761780911299
H         9.09820336756073    6.79524141409153   11.15488918609194
C         2.81755291862402    3.71814696271964   10.42162021129904
C         3.03874404103521    3.34186767853749   11.89478322903370
H         3.04394220647266    4.22024492494889   12.53497394243679
H         3.95999560735733    2.78237866566794   12.03813546736814
H         2.21760254477654    2.70357070859355   12.21562382832711
C         2.84988243748682    2.40479413481628    9.63322697936385
H         2.08351054801266    1.72839459445505   10.00648430548215
H         3.81660248901660    1.91880526985440    9.75187339868467
H         2.67578580763519    2.56726760520540    8.57201595889602
C         1.43656338553384    4.38126311388890   10.35506338755028
H         1.18046361828011    4.69259471072476    9.34535120158784
H         1.42327336549418    5.26671321738322   10.98739901800451
H         0.66827469306273    3.69674669557255   10.70822932091751
P         1.64123132240542    2.92342243677737    4.50825764241328
P         2.60994263408399    4.70918727133700    7.32553059591390
Ir        0.29653068790618    4.37584745635059    6.18922929470305
N         0.31976163105732    5.89099871843078    4.80233844319390
C         1.34210484721305    6.70143286246015    4.54127083820621
H         2.29141067195442    6.43764238691609    4.98162639273445
C         1.23863069220863    7.82804313570523    3.75008505983946
H         2.10389634179693    8.44615467541034    3.57427618598927
C         0.00350321361475    8.14055741543296    3.19910414488244
H        -0.12481909082536    9.02536010405706    2.59535231997593
C        -1.05397393607004    7.28368165770813    3.42831204471834
H        -2.02055552094617    7.48886907074584    2.99973317962909
C        -0.87757299523739    6.15005829688178    4.22147834182704
C        -1.89466987424411    5.13819132286291    4.45508054273029
C        -3.13458810974726    5.11583486881280    3.81681193637177
H        -3.41997922659722    5.90992757888120    3.14464201241824
C        -4.00333919852445    4.06658808719963    4.03441488332610
H        -4.96379337789866    4.04900283544836    3.54312872709261
C        -3.63529253205409    3.03137206630832    4.87816040823320
H        -4.30772393788482    2.20214122723974    5.03987389531532
C        -2.40829534131945    3.05276967196149    5.52359432149864
H        -2.16129781547632    2.22683607422861    6.17555833157334
C        -1.52228232818109    4.10167678144671    5.33095464926544
N        -0.13349655959033    2.98454441154454    7.63786562911696
C         0.30800520048228    1.73006784327165    7.67790514894503
H         1.08612073359080    1.46979062928340    6.97665104518507
C        -0.17269990589878    0.78085630829419    8.55755968625224
H         0.22560625095066   -0.22050834610473    8.54263500215688
C        -1.17357529967261    1.14724655298677    9.44687057320955
H        -1.59303962190978    0.42893468466047   10.13385144858636
C        -1.60891752829209    2.45699793784383    9.44307555978457
H        -2.37159824059480    2.77663897915908   10.13317937870240
C        -1.06760611379306    3.37236689823231    8.54061334044847
C        -1.38868383274818    4.78974467877651    8.50798089311125
C        -2.18882899044512    5.43084218056634    9.45350119459565
H        -2.66650880649718    4.86800759225980   10.24020465615185
C        -2.36608449363441    6.79761158597820    9.39396913253133
H        -2.98667829982997    7.29464997189282   10.12331749010493
C        -1.73748328700983    7.53105212431690    8.40101779274189
H        -1.86315945450993    8.60272645020423    8.36032278314287
C        -0.94916095671789    6.89838538106314    7.45189406779528
H        -0.47858877599580    7.50713529342672    6.69276456896183
C        -0.76538353494819    5.52447042790775    7.48231613624992

