96
CSD_code = PIHYUB | q = 0 | S = 0 | Stoichiometry = C48H40Cl3N2P2Re | MND = 6
Re       30.34577374947844    1.92098142001930    7.85253010040502
Cl       31.78145182849915    0.16218934243278    8.70266324734788
Cl       29.81868174819030    2.62274026098384    9.87470063898346
Cl       28.74461922526100    3.51410569271850    6.87367621475548
P        32.07428545670646    3.65576306513350    7.97880276218749
P        28.47131652537033    0.33202621139487    7.86898139542071
N        30.81230830621389    1.42302802735323    6.23006859141042
N        30.51474833529383    3.22390565775578    4.21013845738448
H        29.94290285896424    3.26608895710828    5.05962985174400
C        31.22415410570335    1.09277590943388    5.02149180605640
C        31.10721789595109    2.02977094781982    3.94538324669023
C        31.55999770799036    1.64187031100944    2.68105086192018
H        31.42053006664274    2.31084550750950    1.84610173482862
C        32.12434931580334    0.40153787865603    2.48110757077010
H        32.45064735665245    0.12150217819609    1.49050676904593
C        32.26470758601754   -0.50166904197426    3.53481924033388
H        32.71263951165491   -1.46776865757668    3.36135674319757
C        31.81653460834609   -0.16621984186563    4.78603732757710
H        31.89329701666409   -0.84356387894602    5.62228468913976
C        30.62692004603216    4.42120989298830    3.52289272210206
C        31.73540689069955    4.74885217452181    2.74222193032497
H        32.55619494507686    4.05427628596256    2.65592903136119
C        31.80390546384575    5.98248273842932    2.12199537151546
H        32.66873919433557    6.22606460842231    1.52196921521681
C        30.78430197594662    6.90705928638778    2.27235578569326
H        30.84471464788782    7.86720426595070    1.78260664396820
C        29.69321646471143    6.59583792870999    3.06936112932399
H        28.90005388847089    7.31680498852822    3.20344530099836
C        29.61220989357519    5.36772396913439    3.69343600218547
H        28.77505593635547    5.12352768305966    4.33047033341893
C        33.19603800405424    3.67551428575110    6.54635188154086
C        33.56114068750768    4.80954925038548    5.83258978784160
H        33.17282526413383    5.78004188852991    6.10604681465057
C        34.42941199096870    4.69515496123038    4.76053792723489
H        34.70662784580591    5.57851353670478    4.20402347433715
C        34.93640850753375    3.45827567555906    4.39917511468744
H        35.60544996272228    3.37566319068345    3.55507618157230
C        34.59153211685867    2.32804973693124    5.12367097620264
H        34.99146938648326    1.36348525806075    4.84917855495110
C        33.72908200401866    2.43609027767003    6.19708141760460
H        33.45532897021122    1.56418138690600    6.77757782929722
C        31.33781483233516    5.30554965638038    8.10485008189142
C        30.78355996324036    5.90252779577531    6.97481091427467
H        30.85609223366030    5.41107670127698    6.01646377923535
C        30.12679613529108    7.11326354075483    7.08447035270060
H        29.70216182657069    7.56874656341285    6.20218964712934
C        29.99958981754443    7.72615761675894    8.32056102497493
H        29.47691094017756    8.66761678202978    8.40662155173346
C        30.52898287767069    7.12431579587690    9.45045727790137
H        30.41641593480338    7.59279509272100   10.41757287580503
C        31.19291987004264    5.91547673344758    9.34785628074689
H        31.59379148614649    5.43951939220539   10.23297147738955
C        33.27289075589267    3.64780323882145    9.34721054017194
C        34.22299265279948    4.66822672479684    9.36870403994281
H        34.22491825784028    5.41478994169220    8.58556196313721
C        35.15213485807270    4.72346882578146   10.38799677892313
H        35.88649121563031    5.51572843149924   10.40408726137594
C        35.14251872313471    3.76323940803014   11.38943184626200
H        35.87002779030729    3.81035908439662   12.18655234328899
C        34.20554621276824    2.74586420430742   11.36440606821589
H        34.20045296468352    1.99370970637860   12.13922551332960
C        33.26967301922507    2.68352506660477   10.34490156504638
H        32.55327567006675    1.87600704225785   10.31817774139849
C        28.25519325970286   -0.85270823726570    9.23070485333131
C        29.05561646269627   -0.82636937004425   10.36422414928676
H        29.87100930694415   -0.12225494559383   10.43627917834937
C        28.81877508973413   -1.71954720265877   11.39581247069323
H        29.44581231277493   -1.69923270014514   12.27477675814098
C        27.78497746997543   -2.63402845442046   11.30081482149056
H        27.60208345210515   -3.33013176011970   12.10633457936070
C        26.97964432531992   -2.65786254268408   10.17137909341015
H        26.17071526771411   -3.37026669852226   10.09799803942164
C        27.20777340245763   -1.76848862359527    9.14032096555223
H        26.57886730550350   -1.77813793604419    8.25987802562894
C        28.57543638142378   -0.66999905625175    6.36219091892684
C        28.39103800354353   -0.01111282476428    5.14621053629106
H        28.12091131209573    1.03754031899561    5.15062701725609
C        28.56641758333443   -0.69159061138697    3.95734873145883
H        28.42144353054655   -0.18056454833209    3.01702838847943
C        28.94553475898893   -2.02515488589573    3.97330089534194
H        29.08922826029260   -2.55505710499844    3.04342992434370
C        29.15302399992811   -2.67418469716521    5.17855979957936
H        29.46287141683162   -3.70888241461113    5.18895123104405
C        28.97436845529598   -2.00038761227147    6.37485028661066
H        29.15192443990575   -2.50135837545641    7.31580508718525
C        26.80254543295455    1.05665937978085    7.84573317339447
C        26.49804067632409    1.97737181903891    8.84431329197580
H        27.25873304711698    2.26363048677711    9.55834529653241
C        25.23732266763345    2.53713945566529    8.91526639017725
H        25.01163737752388    3.25981702195053    9.68572938075229
C        24.26707238944568    2.17347321359311    7.99574519498579
H        23.28143452882011    2.61225440523671    8.04778814483665
C        24.56222568395411    1.24836911396189    7.00889264576413
H        23.80579827981374    0.96152256973992    6.29257801083198
C        25.82485910278314    0.68794819635359    6.92963639335320
H        26.04780968596021   -0.03004594172992    6.15314072610244

