93
CSD_code = PIHYIQ | q = 0 | S = 0 | Stoichiometry = C30H57AuClO3P | MND = 2
Au        0.65379448693539    8.73497570659488    5.94478244525939
Cl        0.84668718702627   10.56492814757597    7.26394075750157
P         0.36796379063618    6.87902410804419    4.72003798819274
O         0.08373726410004    5.58427290161813    5.64040916237865
O         1.56743938432172    6.52429360476529    3.75231062926932
O        -0.87216270649928    6.77680796283889    3.73209274123688
C         0.69980148263396    5.46860428609339    6.92457207263229
H         0.93428318823821    6.48108178815880    7.28826854671920
C        -0.27062080246016    4.78644091299202    7.89577060582444
H        -0.47987817635374    3.78980441471134    7.48810998895951
C         0.43431854213201    4.62416220454770    9.24430966364248
H         0.67773579880326    5.60829366048395    9.64639584685388
H        -0.23348502531401    4.12392220865460    9.94629523903737
C         1.72234771534322    3.81916921882330    9.10294007743813
H         1.49377559770136    2.81843208611772    8.72842074038075
H         2.19328797231963    3.70977030125183   10.08161939673932
C         2.68758935058921    4.51119552017973    8.14161441331157
H         2.92354964812137    5.50433820746633    8.53956822790926
C         2.00077458320671    4.68493121475733    6.78839429895691
H         2.65369941572571    5.21745438604737    6.09217353210730
H         1.77726593602798    3.70444592020434    6.36059281336345
C        -1.61832914377955    5.53269184015496    7.98725933394065
H        -1.91756581035516    5.76116403848326    6.95922897846957
C        -2.69957242563979    4.63574149586463    8.58972511989495
H        -2.78329480338170    3.70273594722904    8.03628258224774
H        -3.66312573246591    5.13907537748396    8.55714905737617
H        -2.47753245050572    4.40205373998583    9.62783478825629
C        -1.54913223371141    6.84969536917347    8.75754110568048
H        -1.35933074745415    6.67623455467897    9.81331825325352
H        -2.49929804031057    7.37317818805256    8.67145758432620
H        -0.77400187669677    7.50643974639430    8.36718390220993
C         3.98520908213766    3.72336465546693    7.99067275390945
H         4.47881027576518    3.61636328858176    8.95350651308964
H         4.66469737360947    4.23331280041007    7.31193272629197
H         3.78481987969308    2.72964925973475    7.59535753308124
C         1.50359805906802    5.65434757252288    2.60291160228914
H         0.46512928405207    5.58362907943646    2.27000929802565
C         2.00031950984840    4.27018498366207    3.00275474186260
H         1.34878171610448    3.87765359445794    3.78605753801530
H         3.00742539962274    4.36473124625031    3.41559534817687
C         2.01935164889277    3.32019167901640    1.80545632302212
H         0.99375784155866    3.20764406754571    1.43553344796989
C         2.87256084069384    3.92669844384837    0.69268484010301
H         3.90668897990053    4.00743937708460    1.03485294889907
H         2.86033621159087    3.26898473482726   -0.17897002384607
C         2.35469202948800    5.30686535805434    0.29894374493683
H         1.33570618649040    5.20902723688164   -0.07886150348316
H         2.97686192532526    5.71167206127857   -0.49928473177773
C         2.36988859912353    6.26193659055912    1.49523053013907
H         3.39360265665888    6.31384967490208    1.88436468795383
C         1.94824708113479    7.70637699604675    1.15478486281460
H         1.92183201557321    8.25203920697249    2.10495747877674
C         2.98445428273410    8.38620346941482    0.26055413060479
H         2.99149848217182    7.94745112230274   -0.73438175515869
H         3.98129663957136    8.29792998134013    0.68610306098190
H         2.75064671306405    9.44328924809344    0.15919388327121
C         0.56426116469649    7.81009474412685    0.51773887708614
H         0.31066475942616    8.85809530618918    0.37374126206001
H        -0.19538507490121    7.36673965745856    1.15629720992328
H         0.54137774497095    7.32168238008218   -0.45353435044521
C         2.54355324047620    1.94821033370859    2.21915233957125
H         3.56242738096167    2.02783853618325    2.59185110672794
H         2.54136596998851    1.26722979275449    1.37137895553505
H         1.92346484359017    1.52133424967329    3.00395981037211
C        -2.19035226190689    7.07256426376336    4.21888616824921
H        -2.11092217166241    7.48223541989274    5.23428885174094
C        -2.97765022025275    5.76645667347982    4.24813800907035
H        -2.45788261310209    5.05341553868555    4.89120536297069
H        -2.99281883431868    5.35138432195784    3.23751801625535
C        -4.40783836985200    5.99294546280761    4.73278662796431
H        -4.36989469422348    6.41358545412064    5.74408951927701
C        -5.08323003483430    7.00516771453316    3.80895926742077
H        -6.10086974484118    7.19834708926061    4.15377782209687
H        -5.14577080463435    6.58815180246534    2.80122741983282
C        -4.29875848850201    8.31337981051263    3.77981736327797
H        -4.28524154456432    8.73575641872449    4.78517049459642
H        -4.79805269930033    9.02345510186925    3.11997730503385
C        -2.86083031479891    8.09931680694205    3.29893830611194
H        -2.89034375154298    7.65143012139407    2.29830803919306
C        -2.04839834834895    9.40743052700335    3.19197526952304
H        -0.99078964265551    9.12251691810626    3.12458426899900
C        -2.40624167341008   10.16077891980091    1.91133210061956
H        -2.24239501208553    9.53809935744994    1.03446715334385
H        -1.78913383478517   11.05112243152678    1.81972412794929
H        -3.44801291778545   10.47254900629831    1.92368141885034
C        -2.21150892140572   10.33372777028280    4.39507805075588
H        -3.20361780851215   10.77786675198208    4.41484706412576
H        -1.48374606220612   11.13955174560786    4.33947107088529
H        -2.04295358887350    9.80941936825855    5.33326013488433
C        -5.17758114991128    4.67692793298948    4.78059208318233
H        -5.23066883523262    4.23032027025574    3.79012453873093
H        -6.19149556156135    4.84249172198063    5.13659712132097
H        -4.68936420696292    3.97278548952204    5.45013193957565

