39
CSD_code = PIJCOC | q = 0 | S = 0 | Stoichiometry = C19H13Cl4NbO2 | MND = 6
C        16.53930809821461   -0.71676896180018    3.67213087361365
C        15.36499728579160    0.98320085623709    6.21489150603056
C        14.78082331874202   -0.06970233328999    5.47942410169038
C        15.30695166284033   -0.83263598265076    4.34108487956136
C        14.28675440807007   -1.73555213894305    3.96497270063264
H        14.33817636741290   -2.41152478861336    3.13267329293121
C        13.18588352491421   -1.55283673663279    4.78727381664044
H        12.25148105724640   -2.07627845834781    4.70816352433333
C        13.48027525326775   -0.56094923485992    5.71502173688560
H        12.80223623372735   -0.18228631185437    6.45626327347143
C        16.96092947427915   -1.71794683205292    2.66955558672382
C        17.59433244416475   -1.24398248675593    1.51878051410986
H        17.71577803537323   -0.17526592196850    1.39042680729602
C        18.03230655281909   -2.13089018460939    0.55482704424794
H        18.50970296736371   -1.76036582974676   -0.33943634618903
C        17.86529571341102   -3.49479589877152    0.74024147172586
H        18.21327628418254   -4.18804556905685   -0.01076258586708
C        17.26539317063944   -3.97134066304212    1.89538187292872
H        17.15620984644094   -5.03471442092418    2.04758505439566
C        16.81298058411264   -3.09053354586644    2.86064955829951
H        16.37814584047653   -3.46084434646107    3.77665684101504
C        14.74446095789308    1.45803426006752    7.47087100982606
C        14.24870408825335    0.59317524435815    8.44478899329501
H        14.31249235188830   -0.47428661993044    8.29697781403216
C        13.71847991138666    1.10653814784986    9.61422791843517
H        13.34133464522757    0.43533983114572   10.37127623680531
C        13.67795680496914    2.47655906620140    9.82094134847254
H        13.25935754707423    2.87065031030092   10.73482822146236
C        14.18716174291954    3.34002633003435    8.86305252596593
H        14.16557143585240    4.40632041400672    9.02893117936672
C        14.73048805291923    2.83563336328485    7.69771688204848
H        15.13376229367994    3.49411232171763    6.93847102064768
Cl       17.35994769504854    4.31283267370056    4.89159066785088
Cl       18.54931454817541    2.58963526390388    2.33567507817971
Cl       19.36174381989192    1.61026841133508    5.52927620265819
Cl       15.27351749893918    2.25795997239968    3.19082489933802
Nb       17.45633837081105    2.17409951696506    4.24709785730707
O        17.32486988893567    0.26686006887067    3.82604702290582
O        16.39076022264455    1.62190121379933    5.83969959692724

