73
CSD_code = PIJCER | q = 0 | S = 0 | Stoichiometry = C30H33CoN6S3 | MND = 6
Co        7.37189321653413    4.25614166176613    4.03300255255466
S         9.36114796465659    6.43041975772287    0.67492838622471
N         8.37525167015332    5.39778963250829    3.01951286352657
N         6.90546297425929    5.81506347071896    5.34456279638732
C         8.73591942281466    5.76220428496432    1.95143141609340
C         8.21162775030700    6.17292467436365    5.91477056984927
H         8.10014849675093    6.87336809259307    6.75377843298713
H         8.78402090769472    6.65861093906641    5.12255391850556
C         5.98468223715664    5.30920438122386    6.37900183404377
H         5.22086525580273    6.05564584422232    6.61230940474579
H         6.53442045757704    5.13322646865756    7.30580629533815
C         6.31120303300039    6.98007465310313    4.64115886803911
H         6.99075463713515    7.24977887775884    3.83033210183540
H         5.37810092629990    6.64070828818656    4.18812882187063
C         6.04777795036500    8.18260872754768    5.51044386130329
C         4.78336009025917    8.40484176851216    6.04679935719579
H         3.97075265355755    7.73232842552008    5.80687225716051
C         4.53809956119932    9.50164176153694    6.85515096140916
H         3.54967509231969    9.65886285131780    7.26058892053652
C         5.55353477190419   10.39975883478328    7.13278209224173
H         5.36363701134086   11.25601228253606    7.76209810135846
C         6.80785699112355   10.20734508466552    6.57879245177669
H         7.59758910724271   10.91892059311031    6.76848429107852
C         7.05095953716452    9.11064932505958    5.77121780488615
H         8.02443094731649    8.98827411988057    5.31969371328722
S         4.49535589100204    4.89327008395822    0.67462352672037
S         8.26040823942564    1.44138651105446    0.67853448587174
N         5.88094216726400    4.55353485622922    3.02001528181002
N         7.85965296536969    2.81584600640877    3.02072630821469
N         8.95488723338782    3.88179785697317    5.34557453365668
N         6.25603725192739    3.07349881328293    5.34648865494785
C         5.38502424367814    4.68468522448590    1.95208162699555
C         7.99480878477068    2.31840385577565    1.95417325085599
C         5.29344450345881    4.02610278489338    5.91666626334327
C         8.61168611662884    2.57225263752872    5.91701362228628
H         4.74336753909336    3.57999651477725    6.75654218832735
H         9.27379949188277    2.31957384689051    6.75651122531493
H         4.58592278097688    4.27821008207699    5.12484729854846
H         8.74653793035264    1.83286348785690    5.12566724645544
C         8.97687680250977    4.93322454718647    6.37889105866571
C         7.15523806204154    2.52960692937467    6.38059536617779
H         6.89076246193498    1.49506804297181    6.61475504218280
H        10.00513269509491    5.22163546202890    6.61238271197922
H         7.03358221597565    3.09435275230640    7.30710099562422
H         8.54907006741138    4.54621652789913    7.30590001246010
C        10.26093604128033    3.81333921794286    4.64231462580504
C         5.54409114588398    1.97611324276333    4.64387290497558
H        10.15452439433765    3.08970176883015    3.83175463870384
H         4.97090686558065    2.42938260412689    3.83269570971159
H        10.43387273535127    4.79088924880513    4.18890502534513
H         6.30447369535758    1.33734714538001    4.19123839590714
C        11.43426040430180    3.44007147274516    5.51135113103209
C         4.63385574670752    1.14672661051221    5.51272493410488
C        12.25891929074037    4.42380649859611    6.04801952673584
C         5.07265543490412   -0.06040603140146    6.04756095196842
H        12.08217144723128    5.46398358366673    5.80934722098100
H         6.06180787107701   -0.42743013611326    5.80873232343882
C        13.33235986611739    4.08749114639412    6.85498031478026
C         4.24392189106024   -0.82295064709230    6.85272500592729
H        13.96272494953516    4.86478493293386    7.26061336523241
H         4.60112281673554   -1.75859024653465    7.25652451591845
C        13.60353453092666    2.75887503349436    7.13074781252538
C         2.95790326131158   -0.39322404860565    7.12892245430631
H        14.44102450952244    2.49494581857344    7.75862428777816
H         2.30990182529289   -0.98747615970179    7.75520407091366
C        12.80952840140474    1.76900680800729    6.57669504830827
C         2.49872290530065    0.79088934380304    6.57732689549616
H        13.03170191836246    0.72919932147696    6.76497626467594
H         1.48740438520889    1.11886669584831    6.76620257387535
C        11.73712495080176    2.10715504667888    5.77070282480618
C         3.32839076200537    1.55141541581634    5.77280085081664
H        11.14417296802099    1.32546443412747    5.31917858887690
H         2.94847487752602    2.45679025364328    5.32286496237720

