50
CSD_code = PIJCIW | q = 0 | S = 0 | Stoichiometry = C19H23F5NNbO | MND = 6
C         6.01411215796020    1.51548903310010    4.32473343215513
C         6.87327729122203    2.41829028137196    3.69067797107381
C         7.94531398861351    2.91185434716322    4.42136356813575
H         8.61870713797571    3.62422432146149    3.97532548871146
C         8.16970458611494    2.48447810670662    5.71610310447080
H         9.00761310427679    2.87664339857185    6.27244298061559
C         7.35110366779922    1.53161421410984    6.29537307030803
H         7.58112977833410    1.17401582413184    7.28510070034155
C         6.25509114031195    1.02240091108056    5.61407336494939
C         2.65020913611096    0.34337792038262    3.23185103532608
C         2.96733481839820   -0.70166462065907    2.29919458349900
C         1.90385183345194   -1.38804027831392    1.67681849808626
H         2.16960241167703   -2.16611701225219    0.97188235395627
C         0.59932131872431   -1.06597519173837    1.95359956556814
H        -0.20007374135491   -1.59611719062029    1.45824124534236
C         0.28815567818570   -0.05946717207114    2.87746250662049
H        -0.74345364304308    0.17292332993584    3.08917823779520
C         1.29393880886274    0.62442218618873    3.50538806426765
H         1.06431197369696    1.40668949902215    4.21409769307756
C         3.66934184721955    1.06238679896431    3.90026652151479
H         3.38748784988535    1.72174993636719    4.71739494574960
C         5.44065218385970   -0.12915272418375    6.16273543460473
H         4.39152244576074   -0.01460879129352    5.86926432000361
C         5.46994386392780   -0.22201177828621    7.68827518732470
H         6.44641150790831   -0.53911998577355    8.04388192535314
H         4.74155481527444   -0.95804680911151    8.02046663955685
H         5.22164373510404    0.73539042622243    8.14147098660069
C         5.96885741942477   -1.43012394194617    5.54111086512701
H         5.86080063168707   -1.43874061004422    4.45492322236360
H         5.42365542338840   -2.28098480081560    5.94275011558590
H         7.02377250736053   -1.55385474776122    5.77379181100972
C         6.59503578185543    2.84715294985517    2.26930656316624
H         6.19735721491696    1.98731480803333    1.71668620794120
C         5.54072378123263    3.96015663494058    2.26013575410872
H         4.61267848661926    3.63380331094179    2.72534180357530
H         5.32390360789575    4.25497699023515    1.23695310214794
H         5.90904038426740    4.83025290619649    2.80045771922397
C         7.85036035651712    3.30043872901266    1.52640856179102
H         8.21596394124381    4.25555850523080    1.89680335082850
H         7.61849066596371    3.41537345011863    0.47069070125451
H         8.63357263764926    2.55283634150093    1.62101654944300
F         6.80933182210062   -0.65800276579505    2.21642715865974
F         5.84354080178090   -3.04954565864809    2.00478649977052
F         7.15841883911182   -1.88711004846787   -0.09455144406556
F         4.55821229404090   -2.29129925375028   -0.24190664014537
F         5.43590351087593    0.17609453722396    0.22221070012823
N         4.92688878283187    0.99959935249430    3.58441869452603
H         5.18097096026489    0.45153035534279    2.75795338109929
Nb        5.71088106967953   -1.53036395131477    0.97225494189643
O         4.18962938300319   -1.03959207298182    2.04976695551914

