82
CSD_code = PIJFET | q = 0 | S = 0 | Stoichiometry = C42H35ClP2PdS | MND = 4
Pd        3.71904711335923    0.17562972408733    3.10060849150835
Cl        3.45185627577764    1.78851908842618    1.48727437573517
S         4.09916171874311   -1.37628099262174    4.81505735502465
C         4.83391044147240   -0.67309963843126    7.32033943868046
C         5.25561286719157    0.20295620468331    8.29739051905222
C         5.51921193270203    1.52808686358333    7.98641046714173
C         5.36512953159385    1.96536774395370    6.68258853402781
C         4.94271774770559    1.09607947688181    5.69441107256960
C         4.66442017743463   -0.23661425976645    6.00665946847661
H         4.62179147811490   -1.70514227700118    7.55620594630287
H         5.37706112077192   -0.14827241565973    9.31206875581584
H         5.84609473242473    2.21307361557793    8.75452094466161
H         5.57662986009596    2.99507815780290    6.42963686896434
H         4.85286569280724    1.45853517836000    4.65723441495894
P         5.56957714314011   -0.69196239254453    2.16377307988019
C         4.13532598502920   -3.03657641808512    1.92829630810060
C         3.95689616759828   -4.37494935391491    1.62855264731932
C         5.03948275226938   -5.14334627557750    1.23254352623165
C         6.29953373878450   -4.57429963820536    1.12647178992873
C         6.48320512021973   -3.23582801159709    1.41892502463963
C         5.40082241967916   -2.46800894695830    1.83588620920423
H         3.29520811039570   -2.42071818956003    2.25485302146167
H         2.97576386843416   -4.82004449420733    1.70533071014638
H         4.90244596676507   -6.18979091105794    1.00251489158479
H         7.13933159378483   -5.17680562748929    0.81192201200728
H         7.46011469375776   -2.78018967264745    1.32657712550506
C         7.51397458987686    0.21097855823924    0.29866751345080
C         7.89190681716176    0.57908454504216   -0.98111279437882
C         6.96203613688164    0.59390982643171   -2.00704758205307
C         5.64587353369276    0.23528014645769   -1.75978292763198
C         5.26267339309278   -0.13389833712778   -0.48577010820598
C         6.19477251766765   -0.14255031247459    0.54828284882464
H         8.24113659505731    0.20278691840681    1.09932449284473
H         8.91738806000464    0.85800487369878   -1.17663986655248
H         7.26296669902985    0.88897137602878   -3.00163458816679
H         4.92074409170361    0.25110634931063   -2.55991873026758
H         4.23455698286501   -0.40222595880981   -0.26995433272195
C         7.48030596906155   -1.47504235165113    4.10026013289574
C         8.40995049336861   -1.16563681333406    5.07789235091552
C         8.79975620836279    0.14723266307542    5.28328990598192
C         8.25807064019027    1.16435151651634    4.51255214847370
C         7.32502823508237    0.86462056899147    3.53921545884927
C         6.94432902745295   -0.45985335968867    3.31888150819279
H         7.15352273449258   -2.49522618184538    3.95705406207175
H         8.82298131472361   -1.95331191254287    5.69084873333603
H         9.51863096657943    0.38128291243698    6.05448531991604
H         8.55322731010318    2.18933482622650    4.68320330703824
H         6.87103533225665    1.64977351181822    2.94035064040867
P         1.80027312874675    0.83417174927818    4.10754341394798
C         1.37255453861881   -0.71885577856919    6.36311762076929
C         1.35155586350524   -0.96503547491003    7.72243819038982
C         1.55301041273485    0.07057482923620    8.62027810379202
C         1.76730527633135    1.35746409748763    8.15654848993239
C         1.78917668873679    1.61140563487325    6.79747799959447
C         1.58591362308797    0.57500218846115    5.89280532261909
H         1.23788471162222   -1.52889557404935    5.65922517846091
H         1.18960474204655   -1.97059050408232    8.08217979118733
H         1.54788656095016   -0.12662384751917    9.68211598177804
H         1.92833178006773    2.16540052190604    8.85500383929568
H         1.96664490334624    2.61533881781975    6.43644898664697
C        -0.03294795852222    2.92583478697649    3.58163394609232
C        -0.35023460667510    4.26413481540450    3.42705962607583
C         0.62878573953653    5.23447144119700    3.55815300101358
C         1.93619759315466    4.86880991853995    3.83639147571797
C         2.25952155986341    3.53439163199360    3.98784115538319
C         1.27405313690303    2.55746795826903    3.87034942776866
H        -0.79737267611297    2.17093386019648    3.46450273363591
H        -1.36658208409152    4.54967356349096    3.19712163038329
H         0.37527855752910    6.27685665003130    3.43192562884008
H         2.70320991030979    5.62445340761351    3.92348172853551
H         3.28539819546195    3.23484283825573    4.17580632320419
C        -0.75217688041750   -0.37451104631148    3.94202346995179
C        -1.69699398478042   -1.16047952636212    3.30768864593102
C        -1.40564890718214   -1.75646562598049    2.09051741183967
C        -0.16564706761678   -1.56789387710555    1.50188024530294
C         0.78380623392241   -0.78131359930527    2.12981603163129
C         0.49417525124113   -0.17882394225567    3.35280390926354
H        -0.97162968232108    0.07924857602748    4.89944796140637
H        -2.66421791779655   -1.31106667425544    3.76499587302366
H        -2.14725899335116   -2.37130865695540    1.60203348167420
H         0.05973715857467   -2.03482909121541    0.55414907596326
H         1.76161929396503   -0.61235397120078    1.66309380685952

