78
CSD_code = PIJHEV | q = 0 | S = 0 | Stoichiometry = C30H46OTi | MND = 12
Ti        9.68384176290692    5.52386388314115    3.71514026383566
O         8.84421551588374    6.61737408384888    4.73178102695732
C        11.94554802431160    7.17710581745802    4.96555711688404
C        11.57977484754106    6.19375899616191    4.15929028131209
C         6.64146038913915    7.00444058352688    5.35926978578579
C         7.95730420174672    7.21264029048722    5.49799627010221
C         8.54629534424330    8.18035351192881    6.51744989753860
C         8.88502954439697    9.50677352355890    5.82546353808926
C         9.59882049574831   10.44717559985427    6.79227032000884
C         8.74353439416165   10.69335087696497    8.03175596575882
C         8.38983088667546    9.37214909835094    8.70866657407929
C         7.66144904444074    8.45228738130103    7.73152804791550
C        10.58014144888655    3.24341086630783    3.90885815659648
C         9.19118132199313    3.11131756831616    3.68999174068341
C         8.51179648868738    3.73693235710292    4.78004179936722
C         9.48598440133446    4.19467196783017    5.69874222730984
C        10.76746211953153    3.91916391134685    5.15109121854452
C        10.61249429131123    6.04540895200185    1.53139451988940
C         9.59458447149032    5.09214627859677    1.31483166019047
C         8.35864016846418    5.67512014106497    1.73059372959896
C         8.61736783586001    7.01916748255233    2.11156643451758
C        10.00904780942994    7.24224111060888    2.02995658562055
C        11.69308332531755    2.54820008090067    3.17485041946591
C         8.51655794674878    2.10330031327158    2.80369719245106
C         7.04681114554278    3.56610093771442    5.06200069993294
C         9.24850711490368    4.69765718041506    7.09164598306273
C        12.04595929646152    3.93396947761784    5.93960645980719
C        12.00550668584742    5.94951186665593    0.97868181149877
C         9.76849503684872    3.92389353808094    0.38522448653274
C         6.97679955914810    5.15332464611412    1.44727053936329
C         7.58040918787532    8.08177385121916    2.33442630090836
C        10.69416773949757    8.57271414657985    2.14177620577657
H        12.40782682009045    5.67325036569325    3.65950088988681
H        11.23003912885695    7.76761859054173    5.52099377787301
H        12.98621683266200    7.45744078243543    5.12955398780375
H         6.27418830970866    6.33450644730615    4.59991068820381
H         5.91225855818302    7.48983570635528    5.97742242485328
H         9.48411848295494    7.73108341814777    6.86776900742661
H         7.95939686678875    9.97319117450859    5.47692646101148
H         9.51898462197447    9.30908769636017    4.95679342411358
H         9.81541172299315   11.39537482020506    6.29509044202139
H        10.55124134969776   10.00347207596314    7.09251836118537
H         7.82379360175721   11.20585172360884    7.73982298800948
H         9.27844611339176   11.33960980125506    8.73117134805886
H         7.75971013350909    9.55926136871877    9.58100046430890
H         9.30413244136417    8.88508451717453    9.05601206013566
H         7.40114532035717    7.51275491265881    8.22344076343177
H         6.73708557889457    8.93867652682820    7.41569085523627
H        11.32036279155548    1.99952668526737    2.31291144659758
H        12.17658029473658    1.82870926549632    3.84000484621772
H        12.45854136402096    3.24881107893369    2.83521056314369
H         7.60270245076768    2.48867596615803    2.35679867226336
H         8.23604463634031    1.24085037573130    3.41624064668492
H         9.17233597689567    1.74551480640465    2.01528639272116
H         6.70733293112275    4.26367204538901    5.82455517621685
H         6.86131564917883    2.55089547095907    5.42605427724960
H         6.44354050570704    3.70571741782967    4.16542250475166
H         8.26679380641990    5.15790642724790    7.18829808823489
H        10.00657177560026    5.42842344594440    7.37221264111627
H         9.30607830119353    3.86534176461888    7.79865655614720
H        12.91704275545429    3.88517486115591    5.29067367938359
H        12.06736530815797    3.06252546133764    6.60063754951518
H        12.12568666751827    4.82763714211301    6.55626242900826
H        11.98322191287600    6.14724657168382   -0.09731213090674
H        12.42976315860208    4.95560276123650    1.11953764098255
H        12.66288837228595    6.68311891451262    1.44019667070994
H        10.61671289113927    3.29980246257202    0.65955208252465
H         9.96199251901325    4.30832204342929   -0.62097944879377
H         8.87692169883110    3.30614507590270    0.33259685138073
H         6.33561851450119    5.19772653319108    2.32950222487900
H         7.00104306501166    4.12658330680112    1.08947224089086
H         6.50822332698970    5.76157778648990    0.66924247064197
H         6.60135296326780    7.64636819809662    2.51622410539664
H         7.51207064798237    8.71099665709050    1.44236601537378
H         7.83110257995850    8.72068198596055    3.17949022218053
H        11.03969663477239    8.89520124172778    1.15665140545540
H        11.55809940373384    8.52317446416386    2.80613321271813
H        10.00819936680242    9.32586953391068    2.52296576436966

