61
CSD_code = PIJLOK | q = 0 | S = 0 | Stoichiometry = C18H39NNiP2 | MND = 4
Ni        6.06258456857938   13.80973640989007    4.31695514597343
P         5.12024679200740   15.01118664413676    2.72113514087482
P         8.04019047644460   14.64995276430297    3.94755218215841
N         4.85938391338597   12.54093756331085    5.09370213567277
C         6.57604060596771   15.71470169904947    1.78449294685675
H         6.87980071170153   14.96010223172423    1.05752651401656
H         6.28779472632082   16.61262628659758    1.23375631611812
C         7.74299238703460   16.02820391876921    2.72382606855113
H         7.49177385799930   16.91470433574889    3.30984276853725
H         8.65226320135703   16.23893889103606    2.15383997476513
C         4.44614309356621   13.80332294669174    1.47206877850409
H         4.38855409934367   14.25516775296169    0.47500988023786
C         5.40600891586854   12.61397274199425    1.46341930461200
H         5.64531131606406   12.34964118541435    2.50571665365276
H         6.33098380908548   12.84264286209299    0.93862288712552
H         4.94970322404349   11.74905839001082    0.98515375067327
C         3.07145254033939   13.33396188225757    1.93757400879982
H         2.70313679164057   12.53625999229855    1.29384836526988
H         2.34224902176891   14.14103759622235    1.92811141276459
H         3.15884079536857   12.94644598506971    2.95234960477704
C         3.88734822469589   16.41940807613533    2.68237153248412
H         2.99980259397721   16.01375815806487    3.18430664576763
C         3.47746184899032   16.92149984862486    1.30315928416773
H         2.74762701501797   17.72364829450347    1.40946290053082
H         3.02502626407065   16.13102337051711    0.71080254258616
H         4.32833742642610   17.31848004408872    0.75432435333374
C         4.42953861112574   17.55632906275788    3.54531844857384
H         5.28093300258684   18.03466834849420    3.06421001344801
H         4.74824452316945   17.17013483647499    4.51270127337378
H         3.66519012331020   18.31438198098208    3.71145055757361
C         9.62412292138430   13.91237885218282    3.29067088459659
H        10.34149917617003   14.71441855147016    3.08360473949903
C        10.20261049939552   12.94884097705862    4.32135685076947
H         9.43550269229033   12.24268600327584    4.63707850326153
H        10.56752682141897   13.47727601498667    5.19907599550862
H        11.03214877614852   12.38610731347993    3.89526576262662
C         9.30852510196722   13.16943028284694    1.99646246952943
H        10.19468592296439   12.66137477179513    1.61787238531873
H         8.95581424989963   13.85448041987746    1.22819862272156
H         8.53474189617956   12.42492396143181    2.17996264844004
C         8.61573535326137   15.60133918762723    5.44795649407418
H         8.96141950533479   14.82798995424774    6.14564190898369
C         9.73659971143870   16.61143176361493    5.23777406450219
H         9.45273433757708   17.37053190743878    4.51242804015136
H        10.64640713532201   16.12647051283332    4.89220838851911
H         9.95934517698257   17.11249156637067    6.17947201432402
C         7.36886131888606   16.24757064045742    6.05328168147089
H         7.50531122253664   16.46626274236018    7.11125243758348
H         6.51860591495493   15.55945027252871    5.94153977008335
H         7.12224481751328   17.17755216497068    5.54413779771166
C         6.04078528271809   12.34952191504412    5.65303757675401
H         6.70744774017329   11.58189505823998    5.25207481422973
C         6.05235649873350   12.61387214992921    7.15066170061574
H         6.93764725718896   13.15036167796902    7.49265192600516
H         6.01080562640780   11.65479230977194    7.67879049574987
C         4.75629179086745   13.40807518851038    7.33830789417706
H         4.24515175330668   13.17386061808959    8.27055687775996
H         4.96083057645542   14.48056048395829    7.31621896819901
C         3.92322830682367   13.00825181348264    6.10370976030523
H         3.26429710809429   12.16119405725656    6.33959590299798
H         3.29955102634907   13.82357276665722    5.72874123177094

