43
CSD_code = PIJLOM | q = 1 | S = 0 | Stoichiometry = C18H20AuN4(1+) | MND = 2
Au        4.72754687964437   -0.00001747258247    0.00040130567021
N         7.05196897694767    1.89499979023804    0.46818010965210
N         5.20470749920287    2.99035420559645    0.18070103153296
C         5.73431836325421    1.75439411714741    0.23364993593450
C         8.01235402468919    0.83705328247664    0.60308732649159
H         8.48274206459738    0.87971926441455    1.58694131824136
H         8.78610456475698    0.93170573944283   -0.16073319777867
H         7.50943576195212   -0.12095469724244    0.48734664144979
C         7.37983655640438    3.23002504825776    0.56815170088566
C         8.58123763282470    3.88586173594741    0.79865739462312
H         9.50300061811407    3.34599617961714    0.94210390064986
C         8.54100974483130    5.26508452871874    0.83586759786737
H         9.45185680476684    5.81475316447563    1.01228120288439
C         7.35029405830019    5.97097986732528    0.65081781334122
H         7.37063148875373    7.04849795724312    0.68882562080086
C         6.15173534373344    5.32611610475047    0.42099335138807
H         5.23553281393961    5.87567566100406    0.27874780800766
C         6.18399587266103    3.93903062063660    0.38216958784090
C         3.82648347159086    3.31911484825078   -0.04770007769305
H         3.42552638791474    3.87124606381743    0.80418518393499
H         3.25625666431145    2.40183014588216   -0.18102547289220
H         3.73054236061054    3.93577748448236   -0.94307419614611
N         2.40317676458114   -1.89500783458781   -0.46726509231164
N         4.25056855056562   -2.99044862170463   -0.18094765205249
C         3.72088979355437   -1.75447817678393   -0.23304227067373
C         1.44271087349525   -0.83703096463470   -0.60134574014272
H         0.97223270877079   -0.87900968734247   -1.58515133549370
H         0.66905914144873   -0.93225458786788    0.16246066709898
H         1.94556186445274    0.12089352163518   -0.48497838536662
C         2.07532022130713   -3.22999055049231   -0.56780575034730
C         0.87385883118239   -3.88574298510290   -0.79823821226818
H        -0.04796408799156   -3.34582567654527   -0.94109856749355
C         0.91410630548288   -5.26494520924295   -0.83615295249876
H         0.00321146802461   -5.81455004367043   -1.01252447556531
C         2.10490699878859   -5.97089730053947   -0.65187236284741
H         2.08457851000339   -7.04840061189366   -0.69037655091325
C         3.30353735459720   -5.32611516149784   -0.42217247665900
H         4.21979388578370   -5.87573147915336   -0.28048438792542
C         3.27125437356018   -3.93904936957959   -0.38263175421139
C         5.62890654156444   -3.31927719715863    0.04667976841101
H         6.03041800175823   -3.86841815265550   -0.80674965465763
H         6.19859540949629   -2.40226964806026    0.18311305092614
H         5.72495853577185   -3.93869390302180    0.94000824830550

