83
CSD_code = PIJMOM | q = 0 | S = 0 | Stoichiometry = C28H50OSi3Ti | MND = 12
C         6.86137306080529   11.94521814429887   17.45052989313377
C         7.34883914298842   10.83448565060062   16.90500957395035
C        10.23686297185117    9.76799821018745   17.39635292561708
H        10.41241080263094    9.65504115718061   16.33087580833416
H        10.85426149056932    9.03715962012210   17.91051931638847
H        10.58788515103825   10.75510010227304   17.68253589023169
C         7.82484602607346    7.79689644400858   17.28603291713997
H         6.79103006316028    7.60417427272631   17.55760016700570
H         8.43329147761927    7.02791107123207   17.75196730332066
H         7.90938594999645    7.67205870721608   16.21079097680449
C         8.15363866811139    9.73622408764256   19.70990407963830
H         8.54661094079556   10.68705204584695   20.05629632085058
H         8.67170670003346    8.95215958540563   20.25411070677472
H         7.10498659780137    9.69142095575805   19.98962722288257
C         7.67659069432300   14.23642446967882   12.38160856715662
H         6.69968321455577   14.61071539142174   12.08745206242271
H         8.18532515179763   13.90685946404905   11.48246414830308
H         8.23889848951405   15.07339588721523   12.78645592942942
C         9.28268637636527   12.25580065454002   14.21379127900679
H        10.03364855061328   13.00830088632247   13.99340186096524
H         9.59143330804724   11.34175330164706   13.71673844032842
H         9.29581486720793   12.07344068079220   15.28542518763730
C         6.71008732685213   11.29885862169769   12.77611025716265
H         6.25586264506673   10.62681390392950   13.50000575036930
H         7.44487520936010   10.73044526444820   12.21529664996032
H         5.93807783755830   11.60253149304575   12.07617625080778
C         6.01633619343403   15.09611591702815   18.53450066988911
C         6.73215557868270   15.11169369141104   17.24522227351827
C         8.10274944612621   14.76243083488970   17.55710050629434
C         8.18970331637395   14.45893892800223   18.90113627550729
C         6.91036847520816   14.65712008555725   19.49602925440747
C         6.46603239171940   16.16671049050322   16.18121721939946
H         6.92798287809295   17.11319395888057   16.48189353678221
H         5.40073869930548   16.34574487683224   16.05075140965024
H         6.89682663749988   15.87387224437173   15.21895689950096
C         9.23661727162325   14.86832709102313   16.58634921325431
H         9.65743662485215   15.87715284347477   16.60906314206860
H         8.89500934083107   14.65859965506155   15.57397916045130
H        10.03343178165805   14.17038508160448   16.83659452298886
C         9.40743748208537   13.99700268292275   19.63778931851301
H        10.07784926701834   13.45676449960084   18.97174601300955
H         9.13481243013795   13.33912698115612   20.46103485845607
H         9.95569600110637   14.84452234124833   20.05350460586937
C         6.63227476852641   14.42224119610576   20.94619491700317
H         5.66540257677017   14.82994011274205   21.22221141025192
H         7.39707935840643   14.90042564334264   21.55735026847385
H         6.64178122007819   13.35536897747687   21.18207904107517
C         3.79070310086313   13.89829339758695   17.29135540914786
C         3.66969732663756   14.02293217411536   15.87657802570530
C         3.79024392601934   12.73857137561558   15.29160490784918
C         4.01250903276752   11.80071453917935   16.32954491687597
C         4.03645349251991   12.51592921915385   17.55847178444400
C         3.23248996644167   15.22664739249002   15.09119484286818
H         3.94348160675408   15.46919506226313   14.29666861847891
H         3.09980157255727   16.09325263784841   15.73257266661297
H         2.27187411650064   15.01850232429165   14.61203317967222
C         3.55812269707125   12.46694174902726   13.83543673614171
H         3.71099693303059   11.41760046728980   13.59615191087241
H         4.23345230537731   13.06305887593812   13.21882233170497
H         2.53227954160248   12.73040408859426   13.56447518483679
C         4.05496474786960   10.30612066318213   16.19621270196497
H         3.12495886644812    9.86995315276135   16.56905911154887
H         4.88330246217965    9.88255737480631   16.76767232119757
H         4.17346387329902   10.00883138968864   15.15594015350035
C         4.08132519119493   11.87416230758871   18.91648872546374
H         4.72145358479614   12.43488060997616   19.59669795237357
H         4.45845591084339   10.85461155023711   18.84689252353939
H         3.07747415174250   11.83527489880073   19.34603248959389
C         3.51306189954341   17.02574867134384   18.15371050923178
H         2.45390798709673   17.02142631017308   17.91368841125737
H         4.04301414235800   17.50998891130229   17.34145690571339
H         3.63898875560198   17.65365425532654   19.03020708967178
C         3.19210060348298   14.91455398355635   20.20190513510414
H         3.33744026712253   15.73913935211530   20.89183443591865
H         3.48892102125585   14.00429401264888   20.70624546584932
H         2.12685346261861   14.84573522617715   20.00295533932675
O         6.65591838540497   13.30119300736395   14.89598802428148
Si        8.38695240808792    9.54424694446369   17.82324418504256
Si        7.53119411119469   12.80120061698335   13.64595922021462
Si        4.13791670815729   15.25564575193583   18.56995292230942
Ti        5.83830545973559   13.36598672879011   16.44595175366207
H         7.06696683686739   12.08860785282203   18.52000343861133
H         7.16621909066988   10.64792491806622   15.84690666737587

