53
CSD_code = PIJMIG | q = 0 | S = 0 | Stoichiometry = C20H30O2Ti | MND = 12
C         3.74999237952194    3.50043281913422    4.30975410511811
C         4.56270011995012    3.13902716058252    3.19605331828201
C         5.81149114351153    3.78443978096175    3.33742231646175
C         5.78757224028171    4.53104537047078    4.53952571614642
C         4.50201467340246    4.38354991795016    5.12725175409519
C         4.03187914447143    5.10407379558161    6.36075756835446
H         2.95229392959020    4.97587625731994    6.46465331830318
H         4.22095740345563    6.17829975972196    6.26274750047440
C         4.75047909412838    4.55365019127646    7.61635278972638
H         4.09492356971805    4.63933312809000    8.48933489637967
H         5.64249152755282    5.14830260511540    7.82470039741396
C         5.14694728977653    3.11816619130337    7.40723480189302
C         4.24220896751788    2.02328905405847    7.35759172906402
C         4.99742457076127    0.83115297942767    7.25805796755547
C         6.36537356125899    1.18030013348681    7.20201460249646
C         6.46251193876525    2.60022871322315    7.28704928941528
C         2.28889932143702    3.16388907569839    4.39198417632776
H         1.83770749259609    3.54283909805805    5.30549101145462
H         2.14503855832216    2.08335494235282    4.34749545151867
H         1.75927012807285    3.60601519582026    3.54427648177092
C         4.07943613272885    2.32774347209152    2.03168107345685
H         4.86919002966166    2.17580142019694    1.29869339452137
H         3.24765894173362    2.83503897850946    1.53875303045949
H         3.72895866168747    1.35298468374920    2.37484785659491
C         6.94761121614988    3.80460852087846    2.35694588371016
H         6.84829598474945    3.01604462040833    1.61276572451481
H         7.90401720733940    3.68548925227423    2.86775005861419
H         6.96973460639759    4.76229925359133    1.83119585829852
C         6.86135474120852    5.50623187825734    4.92768152776253
H         7.82786751805631    5.01146252384676    5.02915075424231
H         6.62430139686106    6.00815465857436    5.86217706728839
H         6.96172166612610    6.26928252180023    4.15139836901598
C         2.76802463916599    2.04596381502640    7.64149957371185
H         2.57036865781008    1.54090573934210    8.59062701691679
H         2.20714393904791    1.52132804702107    6.86746050125547
H         2.39261068534997    3.06299640543650    7.71916380737878
C         4.40544658420793   -0.54653000847935    7.31920227848450
H         5.13121582649201   -1.30709288327079    7.03479677380187
H         3.53894811132793   -0.62598940760222    6.66064601843241
H         4.07023773998146   -0.76344046875628    8.33672513809762
C         7.54619300423664    0.25637901393194    7.20722658848851
H         8.11897901435507    0.38488052805273    8.12823249878797
H         8.20153750577216    0.48162366692724    6.36386398928153
H         7.23590973152758   -0.78474807817487    7.13976093077246
C         7.77044334701695    3.31614984163256    7.46558147601678
H         8.25483869063756    2.97744318868711    8.38492441986811
H         7.63567626983797    4.39277170967878    7.53351384857957
H         8.44159697685451    3.09450466901711    6.63447166300261
O         7.05679583035773    1.75077169591807    4.67284910713275
O         4.60561411082246    0.82599756057809    4.55211428744378
Ti        5.44434956376574    2.23083932685253    5.24404806481415
H         7.15628779038397    1.54556373848370    3.73713404759413
H         4.95415682425679   -0.04772605411324    4.75966817940774

