65
CSD_code = PIJNED | q = 0 | S = 0 | Stoichiometry = C22H38O2Si2Ti | MND = 12
C        -0.97995589247095    8.02676816118001    2.60542666079700
C         0.04232075941608    8.95553717661220    2.26141595661020
C        -0.54929152369630   10.08968079825061    1.65625732101929
C        -1.94912578422453    9.89712811361592    1.63864392506985
C        -2.22512033632342    8.65586436102203    2.25656634557380
C         1.52727263121214    8.77283339405983    2.35961637926836
H         1.96047191385855    8.66500806197014    1.36213947075495
H         1.78201835816964    7.89283201928100    2.93985186395844
H         1.98068622634893    9.64898311364229    2.82546428372156
C         0.22057742446096   11.24814828915832    1.09934050969440
H         0.74007639319255   11.77072493195539    1.90560021410892
H        -0.43307866485924   11.95323117717773    0.58982703894822
H         0.96896979407653   10.89715354600615    0.38724250825509
C        -2.97851047833645   10.76682761272329    0.97535569844416
H        -2.59210630508772   11.76544994676402    0.77567686762179
H        -3.87298839174185   10.85675246353271    1.59343154063063
H        -3.27818534501176   10.32441746946652    0.02188262817408
C        -3.59628021598289    8.04537111766260    2.28147710162790
H        -4.33564484160713    8.77604699694709    2.61491418167012
H        -3.63343009991770    7.18499582952978    2.94314421544830
H        -3.88150505673378    7.71796572710354    1.27825360258423
C        -1.85449512866215    5.21659083549558    1.61140214116563
H        -2.92497189316247    5.22312753106873    1.78298647732380
H        -1.53912380257569    4.17820096080009    1.58144003497896
H        -1.67897761288147    5.64066728916602    0.62659071405474
C         0.87309199349760    5.40754993877129    2.80832020940187
H         1.32935157500620    5.64483217160285    1.85235565263249
H         0.79390672779609    4.32644782539282    2.87109110418332
H         1.55784048736607    5.72001751987678    3.58975689002574
O        -0.02263956777653   11.03390409579693    4.11159360063968
H        -0.10856802941879   11.73812521430202    4.76262921214928
Si       -0.88037342580191    6.17412238732278    2.96556797607822
Ti       -1.33382410359633    9.82840045923346    4.05950149630897
C        -1.68771576890109    8.02678511880100    5.51358509613251
C        -2.70999378234802    8.95556542976979    5.85755999585113
C        -2.11838468494147   10.08973158633979    6.46267860466834
C        -0.71854359104096    9.89717943648390    6.48030181479603
C        -0.44255304530268    8.65588077767505    5.86244304287103
C        -4.19494658082839    8.77283014193621    5.75941185954001
H        -4.62813143227904    8.66503510421051    6.75689956960594
H        -4.44968866534107    7.89280313412122    5.17921543390395
H        -4.64838272247102    9.64895334629855    5.29353791451564
C        -2.88826530851619   11.24816457155195    7.01965936347837
H        -3.40777633502118   11.77075769719033    6.21342031646471
H        -2.23461445567612   11.95323904742283    7.52919505438624
H        -3.63664714937940   10.89714766173696    7.73175765966947
C         0.31082178370738   10.76684513871598    7.14367491490438
H        -0.07555774717608   11.76548996001010    7.34328445610528
H         1.20536258059294   10.85670676126373    6.52568025870916
H         0.61039805759752   10.32446816624313    8.09719768509976
C         0.92859863243337    8.04536012186062    5.83759539175037
H         1.66798365935044    8.77601335803648    5.50415446543881
H         0.96575093070772    7.18497024090773    5.17594947342603
H         1.21380451633963    7.71797023816622    6.84083010794979
C        -0.81319356123136    5.21658529493412    6.50765524638205
H         0.25728246316944    5.22310231779649    6.33606135295247
H        -1.12857826093640    4.17819938322482    6.53763896930863
H        -0.98869414508428    5.64068066156367    7.49246390415408
C        -3.54075972890456    5.40752643021708    5.31074844787109
H        -3.99703532119557    5.64483118418194    6.26669976347888
H        -3.46156214674010    4.32642213691492    5.24801350653350
H        -4.22550512205757    5.71995561045909    4.52929466349475
Si       -1.78730506380482    6.17412718647952    5.15348711167258
O        -2.64495991950011   11.03396775868086    4.00778735545594
H        -2.55909586975357   11.73819846031421    3.35675337650515

