59
CSD_code = PIJNUS | q = 0 | S = 0 | Stoichiometry = C25H25BrN2O5Pd | MND = 6
Pd        7.12347149852025    4.89913800496449    5.50748664857589
Br        9.42019048881705    5.46113388852069    4.65783434729572
O         4.57155670540092    5.52022865452518    6.73843300444763
O         5.79598138199207    2.19811387933831    6.90383455112952
O         5.75129061516152    3.75141178467439    8.53814614116513
O         7.53413921374130   10.36450266101186    3.67429021390502
O         8.24895643225920    9.02117294169275    2.02002926895022
N         8.32318786006084    3.87117665551670    7.11975702955303
N         7.63307416403085    2.80475247835405    4.69947456057491
C         5.41759899383738    6.52013087537328    7.10978644033184
C         6.71103786225750    6.54313337184300    6.58053399119905
C         7.57413555323144    7.57196076658151    6.89186257436088
H         8.57339608701796    7.60687405537341    6.47615311264832
C         7.14313040621538    8.59936494666292    7.72466928538256
H         7.81440470739365    9.41285228636238    7.95337558531094
C         5.86179273163124    8.58054123547302    8.24595519891082
H         5.53191723738821    9.37939147133478    8.89308891492831
C         4.99365756911994    7.54510618795896    7.94679350095112
H         3.99360309810040    7.51113742297979    8.34875546902606
C         5.25111385958766    4.38256168537976    6.27041506216402
H         4.61517592833121    3.87055775588079    5.53705988543662
C         5.61740512505352    3.46233206072005    7.36955114983276
C         6.08170442013478    1.20627132139834    7.88579541978483
H         5.19588791512085    1.07589985746087    8.51839366723353
H         6.90161345230348    1.55332484252138    8.52634028495274
C         6.43888090102459   -0.08775697392187    7.17852832242529
H         6.64355415864669   -0.86022458643940    7.91410858359688
H         7.31725720874909    0.05095622363185    6.55267402025075
H         5.61316453688730   -0.40640048530203    6.54833852204068
C         6.05375615060232    5.81306738342694    3.94286467963043
H         5.88813279213633    4.98510445806540    3.23864780131125
H         5.09966958659657    6.19694620574924    4.31962916048451
C         6.84483817869605    6.88014241378571    3.33859466646662
H         7.54560436795458    6.61738632478638    2.55207878335305
C         6.76771128746589    8.17523643765748    3.68634976039045
H         6.12688789219234    8.52654921830565    4.48204151154343
C         7.59643376932525    9.18361036946080    3.02275209675087
C         8.32134027548861   11.40781846894961    3.12661403418207
H         8.18539904229278   12.26819040402898    3.77704683407027
H         7.99347306179992   11.63939582111845    2.11052963279920
H         9.37239615539282   11.11228847483676    3.09372158896286
C         8.52074702653372    4.35777100054836    8.33517195802291
H         8.04264357363609    5.30443466183333    8.56036043236278
C         9.28811455850590    3.69987399567326    9.28272385209377
H         9.42848449340045    4.13088434039363   10.26023255010777
C         9.84645940183731    2.47822560503249    8.94380563383898
H        10.43159231357946    1.92061927684403    9.65969446884463
C         9.64209449866596    1.97544319014989    7.67078805199984
H        10.05346066104386    1.01669289525028    7.40023759619143
C         8.88242439229933    2.70982995798236    6.75985838034389
C         8.64666726831193    2.24474955418354    5.37782880474075
C         9.45634099359434    1.27295480651969    4.78953585308623
H        10.30293906519250    0.86999134003513    5.32034836836325
C         9.19403407016250    0.85917687112190    3.49611472066934
H         9.82228704476689    0.12071561457979    3.02186572375503
C         8.11749493661252    1.41329605299971    2.82399275646731
H         7.86886486541417    1.11491679620216    1.81852318393817
C         7.37439424978732    2.38824206214023    3.46942628421852
H         6.53193391469950    2.85370072846907    2.97075607464323

