61
CSD_code = PIJNAA | q = 0 | S = 0 | Stoichiometry = C29H23AgF3N2O2P | MND = 3
Ag       -0.03151827307711    3.05854306780430    7.85113464985036
C        -1.37481729862490    5.21325445078176    6.79816559572533
O        -1.35295687672530    5.16784895741973    8.03370422998680
O        -0.99700952145816    4.36115787547834    5.99641116676194
C        -1.99950206678895    6.51023128698404    6.18660148779741
F        -3.34267372682530    6.41462661385101    6.11394554070987
F        -1.56645630452742    6.76661119640227    4.94474952708263
F        -1.74034390716383    7.60652996535247    6.91746272270675
N        -1.49767124278539    1.47586993287346    8.65950603043476
C        -2.57942584236451    1.82625248552675    9.33992939585800
N        -2.73684910679724    3.11825223789135    9.67294231794818
C        -3.54117985318478    0.86015792799725    9.76547266760694
H        -4.40092626309233    1.19722286406403   10.32412257097579
C        -3.35782545833769   -0.44888880625489    9.45994297648158
H        -4.07119651780334   -1.19955297289213    9.76827698747845
C        -2.21688790298644   -0.84239241344748    8.71674877641956
C        -1.96198162854766   -2.17268643225197    8.34421325313774
H        -2.66446333069424   -2.93777423196025    8.64176227094813
C        -0.84711106759191   -2.49121690233197    7.61471587594404
H        -0.65704047844330   -3.51439761336504    7.32819036275083
C         0.05314720863846   -1.48781653097517    7.23349099841797
H         0.92703693876832   -1.74845460320686    6.65516116079316
C        -0.16903331606050   -0.18427401331086    7.58736148206804
H         0.51923554464839    0.60915892548643    7.29834520199170
C        -1.30530260462206    0.17307628729022    8.33405006528614
P         2.21382757679577    3.76358239911330    7.10371344275938
C         2.71679392640168    2.83108854373331    5.62131929643356
C         1.68670981950380    2.30723812317928    4.84157372223427
H         0.65669008695089    2.49188556052332    5.13250659087629
C         1.97957910038598    1.58593116009433    3.69974102403043
H         1.17951635530584    1.18753583031770    3.09388127167232
C         3.30033397649751    1.37202063142867    3.33610151346617
H         3.53029697566564    0.80388460495410    2.44689414522465
C         4.32565351217904    1.88496932711976    4.11312962406635
H         5.35422648020731    1.71736070151314    3.82919397220582
C         4.03996248985898    2.61435361068232    5.25450776135622
H         4.84272254511510    3.01222862496349    5.85871478281188
C         1.97235610096066    5.45080043164581    6.47423149104047
C         1.62020303306103    6.41383094227136    7.41817597134989
H         1.55496373395114    6.13357588505119    8.46305054986838
C         1.34179442623296    7.70620931036350    7.02020294515955
H         1.05660574069837    8.44680600291251    7.75187063773041
C         1.39866383995092    8.04083983672201    5.67574675735138
H         1.16154846796029    9.04594045411205    5.36135433027598
C         1.73848492434937    7.08365853796055    4.73529778412589
H         1.76895246492379    7.34308150746470    3.68762946008736
C         2.02459192829716    5.78751633932102    5.12804845192161
H         2.27491084089273    5.03901940229828    4.39013034124199
C         3.78197632706812    3.90928911736161    8.02536159399677
C         4.07933553938953    2.90432794329904    8.94056492776202
H         3.36881213969058    2.09951697820153    9.08696894733048
C         5.26383861702561    2.93858102492421    9.65226745683629
H         5.49219537714272    2.15580050270263   10.36043159042160
C         6.15415024045846    3.98320499913728    9.46066659255770
H         7.07727890383254    4.01512891130937   10.02011767196841
C         5.85844619874829    4.99003158736185    8.55615579918368
H         6.55222023718029    5.80485635851104    8.40955432424340
C         4.67694081823143    4.95670678636511    7.83688305157512
H         4.44604746736069    5.74135741417344    7.13010324570046
H        -2.16557552079834    3.82024700268472    9.21077301958577
H        -3.61490179503046    3.42385405105916   10.05432859646411

