131
CSD_code = PIJWEK | q = 0 | S = 0 | Stoichiometry = C60H64N4O2Zn | MND = 4
C         7.22587224461066    3.74749802068879    5.22324963262087
C         6.99256168018887    2.34275074568844    5.01012468926108
C         6.49282412301488    2.21605923653796    3.74729141911780
C         6.40006775891384    3.56566874537311    3.20879778082156
C         5.83376585166825    3.93230828271269    1.97995667827676
C         5.63345239861044    5.25050970722220    1.55315903443478
C         4.97496379052034    5.66444654729792    0.32328019098421
C         4.93285656028566    7.02760112108059    0.35091050854613
C         5.60455461302430    7.43775907987935    1.55796513271746
C         5.88386576043551    8.75947540498328    1.86171911943044
C         6.71346298560111    9.23492629654559    2.86360789846234
C         7.22903284771867   10.58182430654070    2.90762546903242
C         8.14460666051867   10.61322225295129    3.91833375334402
C         8.12285965345129    9.29309520593832    4.52946098777156
C         8.82297829680739    8.89094550761304    5.67097793590915
C         8.64450554640086    7.66200644151288    6.32213069845249
C         9.16583952947776    7.29834912955780    7.62889124407531
C         8.79681659764133    6.00090072556016    7.83987100931982
C         8.10112319052052    5.57494058032264    6.65329915391810
C         7.73474886759188    4.26582852636378    6.40063804853371
N         6.87668681203926    4.45452668844498    4.12155812520689
N         6.00702335552562    6.35184329633577    2.26017471063873
N         7.25318874691143    8.49442017924654    3.85626546160329
N         7.98574333849948    6.60551560080747    5.78176858468239
C         5.28085579132287    2.84393259390159    1.13523061955215
C         3.92696166974613    2.54560766935344    1.26861710055980
C         3.34888793408461    1.52379823423704    0.53968056282542
C         4.12914879344379    0.77945012462072   -0.32908010368092
C         5.47317650845017    1.07047649382254   -0.46542268708124
C         6.06678988769733    2.10563789031014    0.24962239739723
C         7.53437783270840    2.39185911930825    0.06776193557472
C         7.86836113987920    2.80502471719094   -1.37034763806532
C         9.36540000932419    2.77329107567000   -1.67922566343281
C        10.13608657161271    4.02848556177983   -1.24566344611552
C        10.16929878138524    4.26982597676111    0.23393468645419
C        10.97412436789798    3.31043055156076    1.01756420098880
C        11.20714625709392    3.61816052163069    2.44446811476332
C        10.61937003719434    4.68355919537303    3.03071156208540
C         9.66754570528804    5.51350708146627    2.28303365403359
C         9.55152829449288    5.31303121628422    0.83308682812199
C        10.88617981773161    5.10738247435295    4.44417676082349
C        12.20796270614595    5.89500639660969    4.57704780220584
C        12.07770352397606    7.10414152090311    5.50903420752423
C        11.49949667437706    8.32884950074256    4.78623663607924
C        11.22239363065234    9.46293356055620    5.73729532662642
C        12.26861468168804   10.24803857600426    6.20652990034205
C        12.04363855666726   11.28567547059161    7.09316866938720
C        10.75635133709792   11.55871146397460    7.52393226723155
C         9.70282120221045   10.79156132440766    7.06224865989349
C         9.92397896291060    9.74669429407793    6.17363674733369
O        11.47072309412076    2.32154257813494    0.49546274821369
O         8.99243191132211    6.37562422681127    2.85725350889212
C        12.13943770810511    2.70085515456022    3.16765738082898
C         8.71460910692206    6.31753796226335    0.10084318639820
C         7.32263633977964    1.27068112265836    5.99605469770791
C         8.80489915175452    0.89688292127325    5.91543320596463
C         6.12692526569244    0.91649334269472    3.11552744403085
C         4.44263196059377    4.82918680187150   -0.79216685337704
C         4.38552047362731    7.95839326033941   -0.68124808343041
C         5.47640432940888    8.38933026073994   -1.66572872750127
C         6.79583591679874   11.68943377952905    2.00491092341139
C         5.50274637935785   12.32866833703955    2.51693341743816
C         8.97869243154435   11.79253756186295    4.28411413194323
C         9.89722962883008    8.14727156315574    8.61275334013701
C         9.10858989379301    5.12472994865967    9.00796291683839
C        10.43076178196605    4.38249333756314    8.79579431278669
Zn        7.16893939532668    6.47481419579951    3.92222835205911
H         5.49002846368035    9.49704168611735    1.17878627833425
H         7.91591345889510    3.55802971677015    7.19509465433762
H         3.33400396375059    3.12385445692116    1.96321038909030
H         2.29783443024894    1.30281215940254    0.65475975262018
H         3.69181287582235   -0.03005408054997   -0.89470057944306
H         6.07965949926699    0.47353274419882   -1.13199612634330
H        13.27452455829350   10.04244512538702    5.86738526713074
H        12.87156858766701   11.88263741122911    7.44668970976854
H        10.57532453741518   12.36767251481390    8.21641825917148
H         8.69387393019796   10.99502792724770    7.39327057839955
H         8.10266875782085    1.48553673797248    0.30024684390216
H         7.84508169902313    3.16889339081951    0.76700422536210
H         7.47104794678439    3.80224074082275   -1.57065805254198
H         7.36800027567241    2.11374517021130   -2.05268334975280
H         9.49692646287642    2.67795257794605   -2.75991372645246
H         9.81900696494035    1.89856601008544   -1.21257231392520
H         9.72101854718483    4.89485816492599   -1.75890861546649
H        11.17129248509075    3.89381714962077   -1.57330828360029
H        10.90961051956778    4.23797890187527    5.10243411318626
H        10.06061811482344    5.74454526269659    4.75708541964272
H        12.52903594607845    6.24164214336665    3.59173079287103
H        12.98665720441220    5.23205600646675    4.95798791998337
H        13.06162153157471    7.36317313905368    5.90840166994334
H        11.43701563570497    6.84003820553013    6.35188280748295
H        10.58165849026691    8.04202526941480    4.27177625368363
H        12.22055111936975    8.66025593411454    4.03324031163396
H         6.71725798088961    0.38314755410510    5.80340892632923
H         7.08608543824170    1.60916582444782    7.00718460639651
H         9.04309638299373    0.11608832153820    6.63481849096214
H         9.04795257080640    0.53779023942023    4.91777659836435
H         9.42552726233657    1.76556950890003    6.12538038765700
H         6.28800841660477    0.10779433499757    3.82457854050567
H         5.08351124504452    0.89832863086593    2.80915173388800
H         6.73845596662042    0.71898415044627    2.23830812306382
H         4.23456325312168    5.45976105434444   -1.65381546687157
H         5.14910651993624    4.06076256026437   -1.09336608033961
H         3.51777716306975    4.33131215810812   -0.50320742712323
H         3.96415873229858    8.84121665066615   -0.19592688277827
H         3.57554322236131    7.47191386202899   -1.22814920059518
H         5.07613558300518    9.08638100108075   -2.39906446043892
H         6.29696421298796    8.86977122945619   -1.13741634633358
H         5.87419943977193    7.52428371399235   -2.19195740033522
H         6.63764478724709   11.30828053424686    0.99358548243267
H         7.57374543905224   12.45315151074997    1.94606357928836
H         5.18173613531577   13.12819176545221    1.85236447456792
H         4.71062123919478   11.58584352509455    2.57855872819070
H         5.65767412145428   12.74363486640577    3.51023197514647
H         8.86572932096966   12.57053885643962    3.53212863020618
H         8.67585024165399   12.20830906221236    5.24338446618418
H        10.03174222926465   11.52787762785325    4.34907659678168
H        10.05855044650833    7.58719494025157    9.53117059532201
H        10.86803290569295    8.46244255879003    8.23456318654230
H         9.32630474158051    9.04149435700266    8.85395997787749
H         8.30326226182926    4.40223184210095    9.15499078573761
H         9.17635439287019    5.72527117585474    9.91745067612528
H        10.65036949454381    3.74052136080840    9.64630171369038
H        10.38055749598824    3.76759733307083    7.89980780501349
H        11.24672455703456    5.09187195721024    8.67590171409060
H        11.69090675273325    2.34575934001487    4.09399000374074
H        12.37317440882680    1.85066495040031    2.53109386806866
H        13.06557060605922    3.21568077889892    3.41759992549124
H         9.28918735468305    6.80282823131554   -0.68697817480776
H         7.84262710069910    5.84568162531200   -0.34795403895998
H         8.36781791627133    7.07496594971834    0.79921741696469

