71
CSD_code = PIJXIQ | q = 0 | S = 0 | Stoichiometry = C37H24BrO5P2ReS | MND = 6
Re        1.65321679888783    7.92209000160471    8.90230017809345
Br        4.02698603277670    8.95613148451774    8.95291019752294
S         5.92325793260550    7.17883039230633   15.61992733354005
P         1.88885680602372    7.81426011172942   11.33707452163711
P         3.12528872471110    5.98002707511355    9.08511921711982
O         5.95794292573869    4.76621336344618   10.56647380771615
O         4.04021361664788    7.46918841698636   13.91088596331849
O         0.36376369640659   10.73759381984221    8.98575788875675
O         1.98749358117388    7.84132469484423    5.82470303084594
O        -1.15195234394420    6.62769931117734    8.83591151199587
C         3.44612215884460    6.94123371782990   11.63534674617570
C         4.01120100562925    6.20507553262164   10.64874481221744
C         5.26270082145154    5.56476059517547   11.15063248106729
C         5.44089435363389    6.07993737979829   12.51952438035849
C         4.29164401095663    6.92064352432550   12.85783024930907
C         1.96902510073825    9.26879240772718   12.41788972339775
C         2.41877187169038   10.47618023619342   11.89312069861186
H         2.71392265881334   10.54828353729003   10.85561023406789
C         2.50030832028105   11.59183211046713   12.70650353528584
H         2.85376412835410   12.52599700523411   12.29652056760391
C         2.13204692984708   11.50654597226251   14.03815125395557
H         2.19844532868241   12.37756268649200   14.67341595310301
C         1.67728779175125   10.30470547392041   14.55902647179206
H         1.39002241180668   10.23901109583369   15.59812648183712
C         1.59022800048890    9.18521755854392   13.75543558837058
H         1.23848777030197    8.24858798448745   14.16355781216033
C         0.68359456432403    6.74151469956394   12.17256702761941
C        -0.64329537752807    7.16378385218578   12.11992972710369
H        -0.87694870461598    8.10893623247215   11.64329539641638
C        -1.64053056921261    6.37971667911681   12.66445709180989
H        -2.66810555026109    6.70818399568902   12.62300838418141
C        -1.31912101402867    5.16601154301219   13.25410566680013
H        -2.09884991053133    4.54848536922611   13.67434037781304
C        -0.00216842824129    4.74186048005341   13.30125936831044
H         0.24740938578335    3.79487289422845   13.75697235021669
C         1.00338981698607    5.52423136850482   12.75999084372297
H         2.02974021919782    5.18333490502598   12.79493984922133
C         2.54769519074086    4.28415526066435    9.45019533160492
C         1.23195199503587    4.08793711261459    9.84982941223758
H         0.55056632180985    4.92817949421902    9.88171896369768
C         0.79448709575489    2.82223036096451   10.19563557870081
H        -0.23021112102781    2.67603595466141   10.50371105511640
C         1.67165262641336    1.75204517335981   10.14427183774296
H         1.33221023472953    0.76287661925198   10.41410107646812
C         2.98593876301686    1.94678368277441    9.74629084245895
H         3.66892987180663    1.11102864451910    9.70733640882958
C         3.43076190698148    3.20899165784935    9.40196763341556
H         4.45758202206168    3.36479236356941    9.10252054390035
C         4.34352098731583    5.69957890176782    7.78144035667015
C         5.64876582594461    6.17192919263007    7.82047459604814
H         6.01615922128686    6.70796514264475    8.68270599407539
C         6.47585235031026    5.96411329117828    6.73086502533609
H         7.49200505142399    6.32756933776651    6.75954578141124
C         6.00376418918289    5.30703415521001    5.60738020040939
H         6.65427894732558    5.15544758814785    4.75873037038487
C         4.69449032930955    4.85229518239157    5.56197157065180
H         4.32230624747831    4.35111291043321    4.68061642289891
C         3.86230075245256    5.04987267736420    6.64529806763430
H         2.83316899612656    4.70809051311606    6.62366015058064
C         0.81858858970883    9.68975334050632    8.93215858098047
C         1.80488710275548    7.88922349612849    6.95086842290314
C        -0.09503022096611    7.07784136336735    8.87228843403474
C         6.53484729700485    5.76627300402176   13.26611491878491
H         7.25687621214394    5.11760860610022   12.77676101822684
C         6.88235135756650    6.16198357798126   14.57339571788951
C         8.06027356838247    5.78766520527565   15.20655907721590
H         8.79518729857415    5.16086222437810   14.73329332524201
C         8.18532757664135    6.30599930180572   16.49340376061072
H         9.02789804823679    6.12731561625267   17.13696209818935
C         7.10521222241726    7.07204329254822   16.84409436816817
H         6.95174827590327    7.58330824570868   17.77486633440657

