53
CSD_code = PIJYAJ | q = 0 | S = 0 | Stoichiometry = C20H24MoN4O3S | MND = 6
Mo        4.20363395433212    4.04516548783888    3.53681460493446
S         4.35370254194040    3.07870971549061    5.79982205376909
N         3.05993150601189    5.49429596447663    4.74874090270982
N         2.73667504423203    5.23549327223487    6.04590064067257
N         2.93402727686137    3.87466980694439    7.86670035459298
N         2.02636368505211    2.99969873881764    3.80361524309807
O         3.14070529135051    4.85443377940664    2.21225215443048
O         5.48656487927158    5.06469369570701    3.66916697892871
O         4.60098368023469    2.57696201307769    2.90956892474969
C         3.25713049695644    6.13971196876013    1.94945112255768
C         3.47970324524627    6.55919186203306    0.63155797550709
H         3.58273750108703    5.79401353315182   -0.12588759700183
C         3.60027901651919    7.89768775359876    0.32885587263498
H         3.79378004776312    8.20402262629824   -0.68825507428514
C         3.48320474316719    8.85148779076130    1.33336957225962
H         3.59127579930846    9.89939151145486    1.09914958639106
C         3.23635288506886    8.46001732967556    2.63075200370423
H         3.17000642219400    9.21286694972279    3.40050362525953
C         3.11378093979319    7.10694663581679    2.97635410997097
C         2.83164912097182    6.70892060109825    4.34204696363828
C         2.26250526057221    7.72791982292315    5.28849209642734
H         1.76255579736884    7.21361986153850    6.10558038732812
H         1.56576297224063    8.38695427634021    4.77769219212305
H         3.06972276496372    8.32543723004796    5.71049305727061
C         3.25051631771520    4.18693478422006    6.59667078314406
C         2.25854899086069    4.79630612918541    8.75860678527697
H         1.47007373845702    5.27629783301688    8.17042027047581
C         3.21362787117465    5.87281505064627    9.28397920265772
H         3.63603199429780    6.41568309058704    8.43775679893180
H         4.03303905905023    5.39175662424074    9.82219778865587
C         2.47360770869355    6.82554903567254   10.21745879806841
H         3.16414914920978    7.57977189688834   10.59821605876015
H         1.68809628049519    7.34081108632018    9.66052304162614
C         1.85031243136601    6.05668640090727   11.37855441441150
H         2.64082707724995    5.58994007269203   11.96970854019792
H         1.30674137763625    6.74313545105929   12.03010878383240
C         0.90426156684948    4.97885070612222   10.85798326104160
H         0.08013929624778    5.45002916159919   10.31822900377637
H         0.48049079605076    4.41952730706799   11.69387819579275
C         1.64125284202385    4.02439327923745    9.92160865832826
H         2.43446094554409    3.51477170944703   10.47312948386223
H         0.95599835525977    3.26727340775294    9.53714421239706
C         0.85336434982943    3.59227466385289    3.60198721637193
H         0.86432730483438    4.67305138080694    3.51292733186281
C        -0.33989555326063    2.89539261594566    3.50677912489066
H        -1.26473840653757    3.42646367948157    3.34442897961175
C        -0.31567243417837    1.51442071565509    3.61937861165552
H        -1.22599182474642    0.93811841504402    3.54549883388637
C         0.90559361857090    0.89432607562844    3.82627611197217
H         0.97886683641578   -0.17759074152015    3.91698027174868
C         2.04733178002320    1.67472062618634    3.91402288839690
H         3.02307818119861    1.23040268263859    4.06574198042559
H         3.50452547691366    3.15437463277321    8.28406681655063

