115
CSD_code = PIJZIU | q = 0 | S = 0 | Stoichiometry = C47H64CoI2N | MND = 8
I        17.26982533800605    7.39357035780305   18.22985339712408
I        15.79703077925624    4.40187304609986   16.34233313326365
Co       15.98362803757976    6.96301961085673   16.03707433056179
C        11.07780954466060    6.83999925503965   17.65543975897140
C        13.69404310326027    7.12510157054578   20.41423711453788
C         9.93380040674295    6.69083631239435   18.42766921759228
H         8.97570132672376    6.62927773075605   17.93242065402229
C        14.42932801883136    7.08966784326304   16.94312456986510
C        10.97171848104228    6.96466601264198   16.18163776927550
C        13.82485888547316    4.62237373241625   20.78953754495824
H        13.04539417704771    4.63883888053206   20.01960114934228
C        16.67131563515085   10.13524070893437   15.62599173528965
H        15.70912350517587   10.58238665596511   15.86687071728999
H        17.15929435136460   10.75389424498894   14.86967852957480
H        17.28883630551933   10.15217825604054   16.52298986085956
C        12.40791572718271    6.93203450644590   19.70490596653202
C        14.34780561378260    6.02798821215154   20.98131763070152
C        14.83578262862288    6.06116784663541   13.11405863502874
H        15.10390380045963    5.00900919051921   13.19096338684880
H        14.95556699112478    6.36513299714995   12.07150234871690
H        13.78709355435380    6.17727044942399   13.38448876864731
C        13.20037105044056    4.10637569814997   22.08884259776244
H        13.93753508996107    4.10013207907220   22.88825223925627
H        12.83206860219720    3.09216023869329   21.95000849015936
H        12.36840567903106    4.73628990881951   22.39635901393442
C        15.48964203387311    6.24459956986568   21.73473537248173
H        15.99044133621148    5.39963541498395   22.17816134241662
C        14.20420024507556    8.41467832000250   20.57836372594393
C        10.49671455399653    8.32273597586041   14.26335426660539
H        10.23343510519254    9.27869996631183   13.83448809394968
C        15.35431232324790    8.58621936820717   21.33403183666659
H        15.75829234211400    9.57860969855855   21.46637544026549
C        16.51558760892271    8.74746453467224   15.09946949573730
C        10.01316115626873    6.64906084692681   19.80869896639367
H         9.11437112991370    6.53360851974287   20.39550772980165
C        13.52111661890362    9.62147464935311   19.97207093205564
H        12.62036189449952    9.29642237818357   19.43949180475358
C         8.97990901851822   10.00110858718404   16.25776063401795
H         8.91729102561814   10.42531399793392   15.25904715397233
H         8.77019891583903   10.79090705810131   16.97593745521303
H         8.21361255300581    9.23501556250228   16.35410796704172
C        10.36364544560058    9.40561751742883   16.52480569658654
H        10.38858249458609    9.08686142316652   17.57145868141966
C        11.49775926379528    4.50533609924632   15.95159166533619
H        12.13185206823857    4.65531718782704   16.83189684543090
C        12.31329540008705    6.94378178783470   18.30683474331481
C        16.00410085309834    7.51697627445919   21.92747414328648
C        14.08301056205262    8.91910821721694   14.17279672178346
H        13.21767617752858    8.26795604073463   14.28636940716542
H        14.10270929645935    9.27534921871378   13.14019208118748
H        13.95446097676085    9.78029636232461   14.82330651214347
C        10.48954510361535    7.39005308949585   11.93128880443428
H        10.23752705782124    8.43716207640473   11.72659940870052
C        11.03013480787403    6.01653854433347   13.98168194058727
H        11.16748963880132    5.16470036600479   13.33569825918962
C        15.70664896265687    6.91170887376539   13.97502829955826
C        10.61895683021465    8.20353218889063   15.64126876486726
C        17.23238969454555    7.74227512503765   22.77236851688744
H        17.47948728758720    8.80862833651640   22.73435573426360
C        10.19596779759981    3.83581468102478   16.40643259464683
H         9.70306338928173    4.41868292329033   17.17995648284261
H        10.41036776178504    2.84719626832890   16.80519878496903
H         9.51431902509031    3.73060439109788   15.56434430630669
C        17.60185297498100    7.81782295237571   14.91633201038075
C        15.36346106718016    8.20604091536331   14.46017692033121
C        17.10688970253944    6.69409310725878   14.23221023856169
C        14.92870466677406    3.67526234518011   20.31735019452065
H        15.47039549921369    4.10747112216162   19.48173170772930
H        14.49793948056220    2.73129311371284   19.99197981089760
H        15.63797675356097    3.46837914566079   21.11364745782883
C        11.18301454994854    5.85781295208885   15.35093052307182
C        17.94104962934809    5.58026334961388   13.69209241172762
H        18.70528803825474    5.27659101363725   14.40588513906786
H        18.44366623034809    5.92028434641597   12.78371187023538
H        17.33874176730825    4.70886333239181   13.44719900381121
C        12.24066232439998    3.56824694680760   15.00168502214573
H        12.62432720189098    2.71829289365804   15.55984633506920
H        13.08722334947469    4.06890958386770   14.54291674118604
H        11.58271405723912    3.19191112790343   14.22150480572587
C        11.76088874770149    7.04889577997925   11.15230873689250
H        12.04554693217292    6.01109377303385   11.30760236353344
H        12.58358333723318    7.68641910968539   11.46955345681550
H        11.59939351712556    7.20202405540711   10.08737655948079
C        11.23785860381857    6.77986836252013   20.43769389092606
H        11.30133291006081    6.78142754257957   21.51515894821381
N        13.44145229142702    7.06761555168500   17.56416550402582
C         9.32113695534012    6.52032286103829   11.46220567451642
H         9.12919845942683    6.68536440098212   10.40420980739666
H         8.41984330638582    6.76457988986985   12.02031210108928
H         9.54101239831212    5.46597841828268   11.61045487112226
C        13.07894198789338   10.59988099648237   21.06224333813099
H        12.43026772910328   10.09855928792484   21.77756632346421
H        12.53120977530933   11.43126018580796   20.62224766059618
H        13.93601839760854   10.99895775777006   21.59761869388811
C        11.45608756522510   10.45974872682068   16.33687417814224
H        11.49931455222583   10.79507473764329   15.30284447260152
H        12.42415977910189   10.04733432771651   16.61348019262066
H        11.25782062565476   11.32157575295015   16.97077093771881
C        10.68860081512433    7.24006064212067   13.42066945523639
C        16.95364988321324    7.36690787040482   24.23016642824430
H        16.11113348090504    7.93722340687732   24.61638368829552
H        17.82554930192894    7.57564963692928   24.84636832176839
H        16.71884633167159    6.30883351082152   24.31540461484258
C        14.44376718768165   10.31008960653879   18.96489213482527
H        15.35271372516397   10.65729613123893   19.44809879927207
H        13.94200391455847   11.16400043999550   18.51217736946521
H        14.72709497494170    9.61212221348132   18.17993216681109
C        19.04113114759301    8.08762194024697   15.20402195235003
H        19.16072514114052    8.86114303047945   15.95833212326985
H        19.52916425052164    8.42025372243725   14.28486710279532
H        19.55204725690351    7.19090735136351   15.55070928000289
C        18.42757896210005    6.96005163099178   22.22828858906574
H        18.26030473811263    5.88982741611249   22.30835338493306
H        19.32634832760611    7.21070452738913   22.78735388021653
H        18.58417100737813    7.20195036945892   21.17978363268680

