34
CSD_code = PIKFOG | q = -1 | S = 0 | Stoichiometry = C17H10As3MoO3(1-) | MND = 8
Mo        0.23299004447257   28.62939149683932    2.78806447965722
As        0.16281408287808   30.71680459447100    4.50810365990875
As        1.16129149351137   31.23779361464349    2.47834152747317
As        2.74672421436084   29.54987411679512    2.37555094982423
C         2.22884268993258   28.67835133003294    4.00965247424890
C         1.21435831946771   29.13569327272261    4.85663147354703
C         2.96692350258898   27.44921943306228    4.35004666627960
C         2.30464832150759   26.28827984563989    4.75422863865843
H         1.22161098950460   26.27332415426146    4.79226606628807
C         3.01317320716692   25.15075546394435    5.08154586411190
H         2.48011027094703   24.26061058646635    5.38592242627094
C         4.39727698084677   25.14102066478257    5.01394527165860
H         4.94901339680212   24.24666493134382    5.26942568088028
C         5.06778119323806   26.28137506708335    4.60631284294868
H         6.14803723624295   26.28380039123385    4.54361598597974
C         4.35989727962817   27.42097072674696    4.27820157447710
H         4.88844633591378   28.31875318418693    3.96310856072941
C         1.02642998613467   28.55445959558571    6.19352514226145
C        -0.24491559071631   28.26321032722492    6.69002764373113
H        -1.10950744213764   28.42514644428812    6.05613928108055
C        -0.41127313672719   27.74415767770975    7.95776771699517
H        -1.40527850252350   27.50988223934397    8.31317854589086
C         0.68771912116461   27.51589946094663    8.76967424332326
H         0.55824948642972   27.10105021147191    9.75999590861227
C         1.95340612895227   27.83129116646608    8.30453921303708
H         2.81829650896413   27.67272943707889    8.93560006895410
C         2.12238854851995   28.35004884545797    7.03654734812954
H         3.11732565566804   28.60366113848546    6.69109556545772
C        -0.90300316682409   28.77542898313170    1.25123009028163
C         0.67208854047633   26.91814963788379    2.05376884009044
C        -1.27181422685075   27.69762743035771    3.51543558008080
O        -1.60254967942051   28.81904641181601    0.32209450377701
O         0.91013585750923   25.86660256486662    1.62419771076216
O        -2.17613764763511   27.07722555361277    3.90111845460518

