55
CSD_code = PIKFOF | q = 0 | S = 0 | Stoichiometry = C20H22N8O4Zn | MND = 6
Zn       -4.24111703083646    0.26570498174812    9.28885705269208
O        -1.91746302578643   -2.04156425020634    9.88081951187131
H        -2.09537980371142   -1.60205760799697   10.72469402374956
O        -5.67296551875676    1.55924256246173    8.65997363987367
N        -2.71081294348595   -1.37377655585741    8.96184760215821
N        -4.18099751075745   -0.03793023664025    7.32898668335899
N        -5.02225803739601    0.71353745764649    6.61943185623491
N        -8.31009229251062    4.25140320316795    5.38794317504782
C        -1.64059830284708   -2.71602257202146    7.20514206055593
H        -1.05197461905389   -3.12175732753997    8.02321555957568
H        -0.97484230703605   -2.27976278129235    6.46345807945572
H        -2.19594784136182   -3.52299592668819    6.73042274544025
C        -2.58322751900699   -1.67992931317381    7.72331873825358
C        -3.43852647275051   -0.95248246579148    6.79887549470790
C        -3.43859771943718   -1.26644104344290    5.33666552385524
H        -4.16155956187815   -0.62029866283350    4.84620446666960
H        -3.70487382283102   -2.30778251634744    5.16227786068749
H        -2.45445651742607   -1.09061737355962    4.90589657864974
C        -5.71829441628291    1.54099443768599    7.40605240403747
C        -6.62008569403392    2.47195814864820    6.68784149107631
C        -6.73508023262140    2.46092426653950    5.29975593040654
H        -6.16164953299873    1.75803823282733    4.71877230547676
C        -7.59361973634236    3.37179755477748    4.70731215398658
H        -7.71817111160665    3.40453782489209    3.63246280449015
C        -8.19774093502440    4.26106591461238    6.70560230130334
H        -8.80084107809784    4.99896357518241    7.21884643078622
C        -7.37228110200993    3.39794586498964    7.40677947852903
H        -7.29677875921642    3.42775411099282    8.48231624864079
O        -6.56451957042409   -2.04190198426748    8.69700309420465
H        -6.38658911254712   -1.60249469350315    7.85307811969691
O        -2.80891287735317    1.55903617295836    9.91771323838117
N        -5.77136719495205   -1.37384259858446    9.61594655409158
N        -4.30134454002513   -0.03771584224778   11.24873326796785
N        -3.46022609522868    0.71389634169900   11.95828573844538
N        -0.17180344335348    4.25110141081351   13.18988225058187
C        -6.84123996195697   -2.71628827123583   11.37271934636603
H        -7.42978863876338   -3.12220274586913   10.55468132534959
H        -7.50707804144626   -2.28018362060160   12.11441941865355
H        -6.28565937351622   -3.52310896710941   11.84743034779260
C        -5.89888202117640   -1.67997189880246   10.85448985596469
C        -5.04367942982329   -0.95236193311673   11.77888315853345
C        -5.04351786243875   -1.26626568226902   13.24110371283633
H        -4.32046937330396   -0.62015299790259   13.73147688436011
H        -4.77730970998832   -2.30762344221875   13.41548824955783
H        -6.02760425432867   -1.09034430552670   13.67196538786373
C        -2.76402089547615    1.54120421302183   11.17165640458064
C        -1.86205133494700    2.47197201856325   11.88988282603885
C        -1.74717329625082    2.46094136188184   13.27798030500475
H        -2.32075085883519    1.75813674512318   13.85892080619957
C        -0.88857754424024    3.37171811077889   13.87048632306775
H        -0.76386268924141    3.40425570638276   14.94532144165947
C        -0.28403721205595    4.26075846193618   11.87221558749595
H         0.31910927928083    4.99866022274297   11.35902323732806
C        -1.10964783615787    3.39782285056153   11.17098922294454
H        -1.18516266634949    3.42770586401706   10.09545169346473

