57
CSD_code = PIKFAR | q = 0 | S = 0 | Stoichiometry = C28H21AsBr2NO3Re | MND = 6
Re        2.19558865239365    0.53508474208388    2.68659095467041
O         2.63071237715763    1.23251800688947    1.25179471268857
Br        3.70254492589776   -1.38690825273883    2.63296192155815
Br        0.27189424822922   -0.82436402080471    1.93769695231585
As        4.09841823661202    1.61622817089800    3.94900572960269
C         3.45187208828643    3.27380517527161    4.72869021037115
C         2.95810715073766    4.20764461573336    3.81820629983443
H         3.05052727725259    4.00181095603979    2.75283360178704
C         2.34979273599722    5.36488474777092    4.26341928629007
H         1.96453045685303    6.08177337283487    3.55253036911124
C         2.22436231437294    5.59464477933699    5.62590196646446
H         1.73512456464462    6.49075052108993    5.97733293136828
C         2.72611118352203    4.67910667759770    6.53474887386524
H         2.63242478194023    4.86192593964546    7.59479459221331
C         3.34017916117223    3.51814030306859    6.09111947663004
H         3.73151659650943    2.80073524885349    6.80358041419258
C         4.96254045159563    0.59807882899021    5.35393169322921
C         4.26906121552286    0.21320598670275    6.49954490811112
H         3.23640728972631    0.50450353486040    6.65363225049417
C         4.89300670681276   -0.57799956219451    7.44917822886204
H         4.34947659919899   -0.87383824569708    8.33416768679988
C         6.19764039526882   -1.00094456889514    7.25828749408767
H         6.67625170991949   -1.62380943177679    7.99904220017611
C         6.88176328975889   -0.64126371056665    6.10861618520109
H         7.89180145577098   -0.98733440574910    5.94742085384161
C         6.26719754041479    0.14938640304771    5.15449785775102
H         6.79042812554267    0.41237009648237    4.24029788418193
C         5.57347490534422    2.24690049193580    2.85359451852784
C         6.48016965711965    3.15789342716998    3.38954717774808
H         6.34542407643865    3.50412108688160    4.41186292165635
C         7.53723336327461    3.61071698285255    2.62138897458757
H         8.24010010399064    4.31890747330348    3.03529355336550
C         7.69305506290383    3.15453174863136    1.32100455981367
H         8.52060389550427    3.50837510760679    0.72449666874817
C         6.79187023118989    2.24999220619025    0.78558176621731
H         6.91455027190626    1.89624137370784   -0.22691901759978
C         5.72920457263298    1.79544763353972    1.54996917049481
H         5.01160053479347    1.09401407562533    1.13351862909020
N         0.71073469706950    2.16770948369556    3.20887707738958
C         0.39648585250349    2.15977353821829    4.48501502209112
C        -0.44083246664543    3.10635376859480    5.08887432046253
H        -0.62370539182653    3.01772315207997    6.14750185239587
C        -0.97627847447723    4.08762448954705    4.30427791506123
H        -1.62264776203864    4.84605163920734    4.72011097893515
C        -0.69538193138016    4.10032573230960    2.92244707073448
C         0.16425380651872    3.09636047736936    2.38766028659919
C        -1.24152110012723    5.06277936811209    2.05048766460049
H        -1.88745836018670    5.82226750041420    2.46565321520711
C        -0.96910484085728    5.02715289923931    0.71119086701480
H        -1.39625793107550    5.76468792406019    0.04900555640972
C        -0.13896453068890    4.02527008338338    0.18636346779150
H         0.05610745660085    3.99767881142930   -0.87432206354259
C         0.41937344306717    3.08163976855241    1.00457701936648
H         1.05625009998613    2.30579125850195    0.59923064310167
C         1.02612956527298    1.05315320158510    5.30952951875042
O         1.66563423491523    0.21941081855410    4.57825349157021
O         0.93381542715254    1.03936856890498    6.51890163759531

