37
CSD_code = PIKJAW | q = 0 | S = 0 | Stoichiometry = C13H18Cl2N2OPd | MND = 4
Pd        5.90131471467534   10.71259620278806    9.42502898849438
Cl        7.68332034019855    9.38233464680775    9.40925533373919
Cl        7.02371451144472   12.07331028010277    8.09552651976243
O         2.88819138758107    8.48867879957593   10.89091819644966
N         4.87864858621153    9.43738720339268   10.54612713996897
N         3.90917649124147   11.51348955844813    9.21916276404730
C         5.16436887717635    8.43476811868977   11.54457543159906
H         5.98964315891330    7.80419592890173   11.19876297855981
C         3.82096066557338    7.66534040886560   11.60254008042890
H         3.88024731577812    6.69815525210566   11.09410677059211
H         3.43828118572476    7.51597277455312   12.61173282374680
C         3.61797113254233    9.44979586171897   10.30125956501672
C         3.03976319589492   10.51946973459517    9.51915272928508
C         1.69407873871944   10.55931592277853    9.17354497849331
H         1.05478270641761    9.73520160318718    9.44401076656011
C         1.22911004860527   11.66595212319127    8.48430390004223
H         0.19642359989932   11.72852332031796    8.17778065551682
C         2.10939792500433   12.70047359763532    8.21851208885302
H         1.77226215276502   13.59007709784894    7.71056231416225
C         3.44629112134738   12.60947627185899    8.61308348953334
C         5.59945058456207    9.12026587167770   12.87315663438193
C         6.85859893013713    9.95455803268177   12.61458164309960
H         6.66226102475867   10.76531293959182   11.89075986030422
H         7.65685426300566    9.33358104550246   12.21449827512944
H         7.19904040968865   10.40629458104207   13.54329571423389
C         4.49633050873633   10.04289484874400   13.39896270320761
H         4.28675718426365   10.83572318483650   12.68051409295847
H         4.82196571180669   10.50768423421344   14.32624796085125
H         3.57279326318951    9.50505319547102   13.60138296255795
C         5.92520028483070    8.03563055265010   13.90187091127463
H         6.27591109568634    8.49512648607086   14.82232323550791
H         6.70836395410620    7.38157007339916   13.52727287106367
H         5.05448914260774    7.42895376248438   14.13867653003484
C         4.38554032379682   13.73864624423763    8.39639913856067
H         5.04221188963280   13.84660005896029    9.26079287965756
H         3.85060785481373   14.66518122585678    8.20950554519112
H         5.03747571866232   13.51770895521507    7.54831152713454

