111
CSD_code = PIKKOL | q = 0 | S = 0 | Stoichiometry = C43H63ClIrNP2 | MND = 4
Ir        9.38647436051516   12.20719456143253    4.17618266036849
P        10.57019516237394   12.39646436003242    6.06810493386788
P         8.38306055929408   12.63342749777209    2.21881535827542
N         9.59505124149392   14.23201058640154    4.18152284302028
Cl        9.00203283019504    9.97289341329498    4.25743828535137
C        10.77295521011865   14.06657340188578    6.25503275104537
H        11.29504592664867   14.53233092093485    7.07624632945591
C         8.41614829431650   14.32192650356940    2.10393394307098
H         8.00643490761966   14.88859458710414    1.28242639916988
C         9.06155010636538   14.99310145651403    3.18261242810848
C         9.14409948749569   16.38976547353213    3.20312779590282
H         8.70718224893154   16.94769152558063    2.39010647892111
C         9.77593234207963   17.02957614696075    4.25090469920967
H         9.84593009730903   18.10661552710794    4.27740160296735
C        10.31577761534762   16.26288073666679    5.26439463066957
H        10.81795513077673   16.71908576424992    6.10278865481318
C        10.21701451370955   14.86796250106336    5.21604342800283
C        11.41026479445534   11.67270477420649    7.50838684484983
C        12.76665826591592   11.30292592679186    7.40353009494703
C        13.47600565937798   11.10658628581073    8.57704008530820
H        14.52074743324745   10.85979389342016    8.52605638491103
C        12.89909013325011   11.23471072487417    9.83372749905257
C        11.53633832608470   11.46083726889257    9.89210980887815
H        11.06040666453965   11.50089781974425   10.85331703005512
C        10.76086444305047   11.65130435193542    8.75336736264543
C         7.55773658499989   12.08755700395436    0.69409421924195
C         6.15467352382644   12.13798655016445    0.60837471996672
C         5.58130964827969   12.08395239971824   -0.65357994003944
H         4.51421326757828   12.17733917509432   -0.74681004252786
C         6.32729474574080   11.92427823763832   -1.81098518054230
C         7.69063610432931   11.72389698079232   -1.67240430244561
H         8.27109860395211   11.53047869905398   -2.55350092945742
C         8.33177208431277   11.78439613536590   -0.44183934365418
C        13.44820956395217   11.03998714776408    6.05916467205180
C        13.57266657406832   12.31843288179195    5.21715727373049
H        12.62758125989807   12.57893058137940    4.74282095515900
H        14.30515514418548   12.16803674609080    4.42647080271491
H        13.89753547158440   13.15522439010211    5.83275660215073
C        14.86885419512511   10.47811202931114    6.22673411649806
H        15.53847452671724   11.20923859801547    6.67494611615599
H        15.26495587819849   10.22653463016256    5.24486078320905
H        14.86958237140284    9.56896041512341    6.82347865868768
C        12.64142515663922    9.97889311209557    5.30043591702600
H        12.59864128808057    9.05648648853461    5.87627815022550
H        13.11193567197261    9.76599928736581    4.34296266056960
H        11.62099635523789   10.30168564711310    5.10399750438879
C        13.76624862248296   11.07459727046289   11.07276652207360
C        14.89305687514676   12.11649967339512   11.03175444433791
H        15.52407947619833   11.98623434820255   10.15712819623258
H        15.51831411922824   12.02755509939803   11.91765187143096
H        14.47502823585848   13.12070260621273   11.00374300492307
C        12.98367965501254   11.27343978707868   12.37387479482659
H        12.53504511268093   12.26354798092724   12.41322017905099
H        13.65996703778897   11.17774947840397   13.22102401792695
H        12.20493205535636   10.52216265229760   12.48276976815184
C        14.36434541078662    9.66074340096113   11.08612241301065
H        13.57028623610450    8.91696741857613   11.07638007059569
H        14.96294270240346    9.51550500749346   11.98294936970020
H        15.00066173461674    9.49047265022502   10.22215491755646
C         9.24808998897228   11.80233132002650    8.93235066081019
C         8.77301666704523   11.07016751846237   10.20083565973603
H         7.68560215838528   11.04229485537336   10.21562380521405
H         9.08760310394200   11.57592476791854   11.11004159837351
H         9.14077996484907   10.04679835581497   10.21623435684926
C         8.46727506739023   11.19860247260603    7.75664924913894
H         7.46573795740294   10.91575691310956    8.07468481347826
H         8.95846538611846   10.30778123088260    7.36846460288558
H         8.34329667135980   11.91215466102947    6.94099351673406
C         8.89362079117445   13.28825551109976    9.08410796829022
H         9.13291965645223   13.83707312082524    8.17602749924749
H         9.44754672715101   13.72965070089254    9.91053274086564
H         7.82950096577203   13.39746463640000    9.28312474521343
C         5.22655785606955   12.22074821649472    1.82262812537205
C         4.99583424753997   13.69133873181528    2.19755662129193
H         4.28135395134634   13.75786422243109    3.01552140737291
H         4.60082656933009   14.24360717594423    1.34686171547915
H         5.92510052400998   14.16082868799398    2.51227567164876
C         5.79377951701362   11.45852112933144    3.02833113935122
H         6.32821228134230   10.56272141904401    2.71648812150419
H         4.98930770926816   11.15301132748338    3.69449537121492
H         6.46859769345270   12.07803409122122    3.62039889231468
C         3.85657216807297   11.59276465100327    1.50791220025027
H         3.97558149693990   10.59770768388094    1.08525901974605
H         3.27291608289267   12.20388350497919    0.82410412868424
H         3.27854648376495   11.50730027436395    2.42556226584001
C         5.62374938943970   11.92673655887548   -3.15934105569286
C         4.88722748730788   13.26231259523808   -3.33485352961411
H         4.14086745291197   13.41024162767426   -2.55939884202204
H         4.38426318399310   13.28911450073591   -4.29920101840820
H         5.59312693609387   14.08919386144169   -3.29051816531330
C         6.59177322258935   11.76138010027946   -4.33424310841275
H         7.33124085675989   12.55890796041228   -4.34802935131868
H         6.03592188109130   11.80280445961723   -5.26888466258044
H         7.10080439887786   10.80126708038602   -4.29189397948063
C         4.61812594929238   10.76738823689620   -3.20137069943242
H         5.12971739287550    9.82048347811315   -3.04178150706196
H         4.12485839155118   10.73453827908008   -4.17055869791845
H         3.85518830416411   10.87466852774732   -2.43537649080837
C         9.82232026602748   11.44706274872700   -0.35795036979251
C        10.00396113391922   10.27531352368891    0.61525194057592
H         9.65366316771090   10.51595992415295    1.61692843172718
H        11.05625768534176   10.00890155252743    0.68689362140437
H         9.45125960133253    9.40597753978817    0.26454788485688
C        10.39450318511816   10.99044685100730   -1.70938331739462
H        11.42788862685549   10.68073726944673   -1.56589333943201
H        10.38980821105607   11.79704393125816   -2.43949147949628
H         9.84901450144487   10.13730346818758   -2.10569279600574
C        10.66253411263397   12.65093635822157    0.09448967034394
H        10.60300790008784   12.79826124480783    1.17192381361476
H        10.33167245935743   13.56125375400890   -0.40215879140082
H        11.70865156679185   12.48383686731415   -0.15475137374338

