52
CSD_code = PIKLEC | q = 0 | S = 0 | Stoichiometry = C22H23N3O3Pt | MND = 4
C         2.48635062446581    5.13875267541455    3.70618403199220
C         3.76671372896244    4.45693260487328    3.23735061483178
H         4.55238889558154    5.17042856950917    3.00875256818592
H         3.55881365928965    3.82723837680360    2.37274398865028
H         4.10719137407798    3.82419830180192    4.05685192215832
C         2.75272605712431    8.01012075805700    3.58660169865115
C         3.76268471314172    7.89028391068209    2.45097629310807
H         4.73003662824057    7.56434692962302    2.82757769528673
H         3.86313798481055    8.84893822476795    1.94206898194872
H         3.39781191533306    7.14769074914376    1.74363271476926
C         1.22560800531299    9.07529895318182    6.55856938211760
H         0.87914802824876    9.33478090372219    5.56656817424307
C         0.75382968029098    9.71103773411289    7.69466779158263
H         0.00056416514074   10.47819095686112    7.61309913688902
C         1.26510042264140    9.33774237349761    8.92841462385852
H         0.91691931102561    9.80603024338447    9.83718618016265
C         2.23050845188198    8.34602789131121    8.97901813952587
H         2.64817619272143    8.00960618293369    9.91488259971846
C         2.65807517851679    7.77312158270351    7.78938934150236
C         3.65421004615434    6.62364934093354    7.78190796623326
C         2.78592715248027    5.37446460714355    7.74408071489805
C         2.70894529977752    4.49961057874531    8.81596854332563
H         3.31379759351107    4.67801166430846    9.68856955453714
C         1.85927828946206    3.41017625995754    8.71988228512349
H         1.78192691344486    2.70613278946293    9.53513228547322
C         1.11061726724055    3.24219309562725    7.56512337682968
H         0.43336237836760    2.41052592122693    7.45394562402896
C         1.25068730421477    4.16574831346111    6.54364158630639
H         0.69887614094980    4.07498838665318    5.61653157129301
C         4.57447954256819    6.63222923631608    6.55326702798305
C         5.12100322610781    7.83057713510243    6.04918398503634
H         4.72238412882091    8.78959173062419    6.34566562018330
C         6.18958220794642    7.75342920803680    5.17844974627508
H         6.62539370808468    8.65518726225060    4.77352627623730
C         6.71391668020483    6.50520247201087    4.85578129183338
H         7.55733382640285    6.41022172145668    4.19032563408447
C         6.13759410794556    5.38849723928518    5.43528364582561
H         6.52203201141177    4.39531439138825    5.24193338201785
C         5.42075986381575    7.56014871509730    9.13199686957919
H         5.01679259387755    8.56169600081754    8.92468387220604
H         6.24807487950340    7.37135456365537    8.43397912122293
C         5.92308515899692    7.47986775372427   10.56530550854425
H         6.72050618611247    8.20141555322184   10.71709502663819
H         6.30120379230356    6.48132407012926   10.76484919100514
H         5.11541786906477    7.68998508311834   11.26159878496090
N         2.15613240819310    8.13007027669923    6.61018426281505
N         2.07152120721103    5.20412491976959    6.63536836939980
N         5.12045772141150    5.44195559396999    6.27834553377493
O         1.41287576983220    4.65433136253717    3.40685835817607
O         2.06342092329091    9.01095515198837    3.65704246952298
O         4.41351714462160    6.57794531495056    8.97767431508666
Pt        2.52880163986549    6.63600636394831    5.01608232035976

