59
CSD_code = PIKLAY | q = 0 | S = 0 | Stoichiometry = C27H25N3O3Pt | MND = 4
C        -0.93751998631962    1.21095945622947   11.69647406572396
C        -1.60283793462798   -0.30314180250227   13.61099476490329
C         2.32643261031412    3.61193261959347   17.04408906568794
H         3.24983604436242    3.41602566946156   17.56934319691728
C         2.07091843457775   -1.58067348655504   12.25594306032579
H         2.07432633777096   -2.57434454614441   11.82572311628628
C        -0.58258508414792   -3.67033425087286   12.21187876335493
C         1.91291903095532    0.90853045762659   13.34117546592877
H         1.80324640796181    1.89969271695441   13.75247446793508
C        -1.39500632991541    1.86929686883122    9.10038841042889
H        -1.58112483773590    2.08767381578775    8.06105465191693
C         0.79095307066416    0.17486924664457   12.98470167300329
C        -0.87747982730385    2.54751574910425   11.33043590798196
H        -0.65589950103393    3.29137390616449   12.07729711507413
C        -1.99580909825401   -1.80181946447347   15.29913782425729
H        -1.55237949539778   -2.44644974540089   16.04708174282036
C         0.71676123747681    5.16017266137911   16.17566808299795
H         0.38128948438666    6.17584126932771   16.02339135599378
C        -1.43409843688715    0.56141356178352    9.55365842143460
H        -1.67065423054207   -0.26684863688750    8.89796491876540
C        -0.61264366587768    0.75263977263195   13.10476726840122
C        -1.11562878824140    2.88039257100547   10.00720479147890
H        -1.08045794214732    3.91235643263715    9.69087428011579
C        -3.37051081497796   -1.70397110409933   15.15595553099295
H        -4.03327081265942   -2.27535466330525   15.78637558900360
C         1.57412261808106    2.55597621352169   16.55790317690414
H         1.91172610299222    1.53918809761601   16.70325198342864
C         3.16146757643933    0.33856951032434   13.15594860332418
H         4.05268947439029    0.88229987254740   13.43239856114926
C         3.24286056298151   -0.93154646062696   12.60704533088689
H         4.19582903534374   -1.41019908086376   12.44738431671493
C        -1.45397011166331   -4.51863049925505   13.13088786995062
H        -0.81975759106176   -5.17816184090941   13.72248323610626
H        -2.09810788428020   -5.13552621863014   12.50686268672989
H        -2.07386586462570   -3.90653465006995   13.78004038898552
C        -3.86805611266010   -0.82739942181862   14.19696499290538
H        -4.93330652726863   -0.69332656682360   14.07608879400050
C        -0.03895872256486    4.10526241207263   15.69696845134497
H        -0.96163282668403    4.28706355608101   15.16652003528900
C         0.38357994432788    2.79495843661220   15.88500858627548
C        -0.43807915715201    1.65996474212361   15.33364826420451
H         0.07058766071236    0.70382934725976   15.48898319223117
H        -1.41215525850205    1.61604210578456   15.84470813248854
C        -2.67154480909852   -2.38503798209735   10.66749703740965
C        -2.98421302404896   -0.10222493493273   13.42306194248984
H        -3.33633774337688    0.62102438329395   12.70285642198442
C         1.90027752747873    4.91515167949830   16.85253701243071
H         2.48969002683781    5.73839891828732   17.22828737772856
C        -3.88777393493721   -3.01059110125507   11.34724173153324
H        -3.83595436136960   -4.08726644794525   11.19513034152149
H        -4.79588385198249   -2.64742338748711   10.86713182262171
H        -3.91425037686769   -2.80490986642261   12.41361618191923
N         0.87661526445312   -1.03565212383635   12.44234819673128
N        -1.21188805777830    0.24633934617427   10.82276229917446
N        -1.13430113805777   -1.10366473920795   14.58063910470238
O        -0.66234399684594    1.88986558524407   13.94509149282618
O         0.48850738410105   -4.11655976459354   11.84603404131189
O        -2.73414597097289   -2.14762686055678    9.47510887950825
Pt       -1.03220172873727   -1.81310133403425   11.64690598146182

