63
CSD_code = PIKMAY | q = -1 | S = 0 | Stoichiometry = C24H33Cl3OOsP(1-) | MND = 6
Os       10.19633195408789   13.60783860619302   13.99743363552293
Cl       11.21140066519185   14.97297428059078   12.30626104429978
Cl       12.35334152362230   12.66975890977624   14.30293332930627
Cl       10.83669207545832   15.25497885602645   15.70053756451065
P         9.30325320837932   12.53638516595396   15.99329323391067
O         7.79796528625182   15.30152194835610   13.35105546635260
C         9.71777747717268   12.21578125125637   12.70172790243085
C         8.57114822383666   12.30501475694460   11.79473499506353
C         7.61805392657870   11.28471968706018   11.71221288125206
H         7.70082414987176   10.42154698435766   12.35743806517950
C         6.54831130977935   11.37573589462988   10.84383847374250
H         5.81332577624956   10.58180356069946   10.81265916531326
C         6.41910248494929   12.47128659330431   10.00770853154313
H         5.58541532555939   12.53750640510056    9.32215381935947
C         7.37048894681666   13.47764320261242   10.05499343665263
H         7.28585961298464   14.33047563425001    9.39664316912328
C         8.42644647283845   13.40437931956879   10.94059858784526
H         9.17656388202799   14.18098199229665   10.96249434574879
C        10.48290919020055   10.93526193029636   12.46621551461904
H         9.89511149002193   10.07913330434051   12.81605876895595
H        11.42484707020364   10.95249733214263   13.02041546874501
C        10.76497698986005   10.79038160556832   10.99653248140800
C        10.32945915660149    9.69300648730979   10.26768591824764
H         9.77822446824413    8.90249362417137   10.76047859590774
C        10.59237304378046    9.59998234367720    8.91171898450784
H        10.24720779939204    8.73887435572965    8.35424812609495
C        11.28912802807402   10.60780515364746    8.26961446259781
H        11.49091789193987   10.53617515855811    7.20922928506090
C        11.72200837752336   11.70962386767462    8.99035766036947
H        12.26271492609400   12.50215002024542    8.49331507242445
C        11.46378435980491   11.80144596738136   10.34412886896592
H        11.79094681338498   12.66349320877859   10.90701481611074
C         8.66721360214832   14.59487681111841   13.63194063682369
C        10.45287996726730   11.52696405602475   17.07204621797383
H         9.84184029258325   11.13459786377224   17.89736385638297
C        11.57040484429195   12.39096175369323   17.64832702389096
H        12.27149843308240   11.76531779876379   18.20089137260904
H        11.19179162971143   13.15737895851885   18.32063897424302
H        12.11276983721158   12.87724465878149   16.84136397700180
C        11.06141423242802   10.36276850918315   16.29304477579958
H        11.72678016770816   10.75949220459181   15.52881698331698
H        10.30701107762189    9.74263490603844   15.81415535071453
H        11.64480596792447    9.73515089815107   16.96720309611444
C         8.54244482354637   13.67145006588762   17.28466026737348
H         9.43155431950419   14.15204530227001   17.70944536018698
C         7.76207392591100   12.99169113941231   18.40779094366621
H         7.61038540910523   13.70871192970460   19.21499280987971
H         8.28562053073508   12.13424059844127   18.82227924271140
H         6.78034463925406   12.67632503023001   18.06147940910337
C         7.70002251167226   14.79139995141961   16.67913511906511
H         6.83914804377493   14.41701695534981   16.13266528004565
H         8.31270842913538   15.38812594561966   16.00982787201935
H         7.34409824896773   15.44441316911199   17.47629711484347
C         8.00007827464421   11.24538223787209   15.53040180139922
H         8.50356224317823   10.72029953834378   14.70796267144759
C         7.57669348873458   10.19879500525812   16.56001467908495
H         6.99036862608807   10.63633576193554   17.36145534069287
H         8.42571899492782    9.68078634743068   16.99517926315118
H         6.95252837900895    9.45444792499563   16.06307060607546
C         6.76443885351772   11.92405791183725   14.94591910350757
H         6.16050439919597   11.20391302756982   14.39425251993756
H         7.05664947014785   12.71738591436356   14.25940966941803
H         6.14423443021099   12.34473041584362   15.73403699036287

