100
CSD_code = PIKMIH | q = 0 | S = 0 | Stoichiometry = C45H45Cl3N2O2P2Ru | MND = 6
Ru        5.02048093472910    4.50971309548366    5.91622249010843
Cl        5.03532682196315    3.07125798038311    7.82579482663954
Cl        3.59109151354296    6.15601774468329    0.66101191604878
Cl        5.99246861250095    8.41352391522191    1.81647295676952
P         7.14373648042948    3.74208997629090    5.48658937190476
P         2.99715007674567    5.22256222217417    6.75530183715855
O         4.02688502961941    2.70943641142008    4.74538581775938
O         4.96639694573321    9.27097090393588    4.86898945108803
N         4.16383565920143    5.29103739320659    3.18024276566060
N         5.64687835894255    6.70722185871127    3.89885243064959
C         8.39900107031998    3.86030321726696    6.80986308135035
C         8.14355244725201    4.59558128566582    7.95869159451365
H         7.18911579401971    5.09478961484743    8.05716171111035
C         9.09170573189269    4.66845010846529    8.96477054002389
H         8.88197486428912    5.23475800129574    9.86043407191023
C        10.30246255692307    4.01240568667777    8.82705552312655
H        11.04149346751354    4.06534294657675    9.61346420306726
C        10.56643880266519    3.28166718029138    7.67848541435224
H        11.51140127974022    2.76883116007814    7.56838816886579
C         9.62093873785135    3.20204293092657    6.67468955017937
H         9.82726228496905    2.62803490422816    5.78068810213973
C         7.39070587396488    1.96207667209371    5.10608675559864
C         7.21986441736420    1.08512092995993    6.17804064422047
H         6.96828687966988    1.48511903309744    7.15163763738697
C         7.35124941651272   -0.27768104221495    5.99464467217534
H         7.21717918650262   -0.94707393239495    6.83165655146560
C         7.65468224408931   -0.78478815955670    4.74055298191480
H         7.75898299333871   -1.85020614112256    4.59484450207272
C         7.82959625823092    0.08036482022313    3.67416741640224
H         8.07534377631650   -0.30863487502958    2.69573489956782
C         7.69881225631361    1.44787500011664    3.85191175659912
H         7.85943441491413    2.10825327806121    3.01145437040594
C         8.01629968869535    4.54108732130998    4.08668175033769
C         9.18299846199457    5.28278372280531    4.23177765386433
H         9.66136399180326    5.35090406839376    5.19822894121426
C         9.73275749535469    5.94209566511837    3.14554314757846
H        10.64047697121711    6.51425141302704    3.27224795250617
C         9.12591413378709    5.87616304900273    1.90312745234882
H         9.55572165105864    6.39474901324499    1.05914830203821
C         7.95739466513620    5.14818595353175    1.74860395408823
H         7.47229915212109    5.09833835856277    0.78402585865224
C         7.40753350852247    4.49462572599128    2.83415060593335
H         6.48183687913383    3.94532772484795    2.71821625649575
C         3.12064711062779    6.47707041384465    8.08066860613341
C         2.31106627816193    7.60520730469024    8.14985992318906
H         1.54125695426874    7.77152507846481    7.40933683744756
C         2.48667735907131    8.52390659562043    9.17136239993355
H         1.85653828325668    9.40109153257788    9.21430669924690
C         3.46010469909966    8.32156066713250   10.13433887050784
H         3.59260464456615    9.04247463091389   10.92803987097537
C         4.25972827289978    7.19059405886677   10.07927525675851
H         5.01403897214481    7.02406138094295   10.83434639726994
C         4.09442164620417    6.27533611559145    9.05736209603293
H         4.71359534467148    5.38934354056033    9.00440485789424
C         1.97497857609537    3.94113656531546    7.56407198677122
C         1.73199091822618    3.90798564480529    8.93134267822304
H         2.11295903991188    4.69242146807252    9.56870201284826
C         1.01101495476831    2.86273216255178    9.48181405026701
H         0.83070199611890    2.84235325444225   10.54687439070043
C         0.52876374154647    1.84334743895609    8.67975006960112
H        -0.02803053767729    1.02644270270286    9.11526445181990
C         0.76938040345560    1.86888279381798    7.31559892473345
H         0.39782935734416    1.07268878555094    6.68509290532324
C         1.49030656237489    2.90909696718332    6.76331071303978
H         1.68381011580724    2.92984100596735    5.69840513939300
C         1.76978739864135    6.04080027283265    5.66191257320711
C         0.43122998383326    5.67765690219496    5.55855210696176
H         0.03149269557231    4.89160648531760    6.18334831155050
C        -0.39827527943143    6.32679001737968    4.65889880667192
H        -1.43634502899221    6.03515670778964    4.58612526093991
C         0.09200428342664    7.34538862972162    3.85939312041890
H        -0.55970213400515    7.84331222158213    3.15661448085892
C         1.41946251309565    7.72880051594609    3.97217649840732
H         1.81016412150264    8.53170025191094    3.36413453160263
C         2.24883382033162    7.08072927219322    4.86613585168641
H         3.28281963486258    7.37787680841967    4.96115334800847
C         4.94191330379681    5.59632931212046    4.26700687727629
C         4.38122837658100    6.20489534810893    2.17040987800626
C         5.30448305866382    7.08895060436947    2.62354184215346
C         3.16996600963134    4.25252151890226    3.12391386792796
H         2.71034397126926    4.28408070165797    2.13388231278325
H         2.39973464811688    4.45367662480938    3.88039505267604
C         3.72831789626974    2.85286619039446    3.38017079309426
H         2.95668971731884    2.11988582891648    3.09679454914554
H         4.62154684358942    2.66324990284672    2.76261277223363
C         4.10001408146104    1.36107676909720    5.15624254143756
H         3.13206248382484    0.86592635800530    5.00785521427821
H         4.34607108495942    1.37075728301018    6.21939489408443
H         4.87044727538491    0.81527467677750    4.60049911012156
C         6.54166830159084    7.46424237055351    4.73563694814315
H         7.21933219324056    8.02240456155059    4.08725998608464
H         7.10379062945262    6.76607602004004    5.36076428819898
C         5.77791467658945    8.42345938762557    5.65062178956714
H         5.16134656705175    7.83690847296375    6.35020897676924
H         6.49948812937177    9.01305740287657    6.23530641096921
C         4.20305439014900   10.15595140446933    5.64778861365973
H         3.55389530422304    9.61186562431427    6.34517897419935
H         3.59502144712283   10.73541648402860    4.95616925911889
H         4.84703467497419   10.83141719363751    6.22402622390939
H         5.64454644661036    5.64501562811013    6.69030490842521

