59
CSD_code = PIKPIK | q = 0 | S = 0 | Stoichiometry = C20H28B2N8Pd | MND = 4
C        -2.25030552673374    4.43860264577993    4.47291503118436
C         0.36947252067782    4.19721342241457    3.06173976317041
C        -0.63448659967716    6.16626711968612    5.13130399953298
H        -0.65168534284150    6.99787346874914    5.84070708689006
H        -0.69911187932242    6.56135727329304    4.10411220921466
C         0.67820876188626    5.39210394249502    5.29453463367057
H         1.48214545433401    6.09938665359902    5.52747831025618
H         0.57516850543132    4.70373293683963    6.14487112612024
C        -3.49141875952270    4.33575448063952    6.28370424704933
H        -4.28216425628627    3.99853725519913    6.92053538978873
C        -2.53087357856107    5.26484184076616    6.51871392525821
H        -2.33254407488870    5.87750834001561    7.37489726343525
C         2.39606033260981    4.23939656857359    3.99799418639965
H         3.14255152678053    4.47880396424369    4.72791451423121
C         2.46965751933624    3.54592481855535    2.83927070203177
H         3.31231626780192    3.06897491517027    2.38667858109511
C        -3.15134858856627    1.55278429373481    3.88385144533188
H        -2.20937150688773    1.93538665494677    3.46062897693543
H        -3.58797946393803    0.86297002943827    3.16459606401943
H        -2.89775938175893    0.97636469986929    4.77132365824299
C        -5.48232418495636    2.39505798936620    5.03054744387904
H        -5.23242673916468    1.96540355437038    5.99868448705997
H        -6.05587319597859    1.63604365804340    4.50301653963613
H        -6.14508415935309    3.24094509975674    5.21315590184833
B        -4.13686319933672    2.80093939772096    4.22225973242412
N        -3.30759623931550    3.84737870107771    5.02475774083603
N        -1.77680308245820    5.32773216516183    5.37365775252154
N         1.08975101006228    4.64443674626875    4.12608898163653
N         1.23160372926124    3.53143879370935    2.27562607984220
Pd       -1.62332532770241    4.27905217482225    2.57212509459027
C        -0.99633409839259    4.43863764506975    0.67134035752857
C        -3.61612579030464    4.19720741223587    2.08251355927581
C        -2.61216824248692    6.16628532950923    0.01296265934671
H        -2.59498557720188    6.99789944881923   -0.69643191739468
H        -2.54755505398606    6.56136656159387    1.04015842215116
C        -3.92485322727315    5.39210501443707   -0.15028075421460
H        -4.72879982101435    6.09937529406436   -0.38322706433022
H        -3.82179571401329    4.70374069895430   -1.00061987384163
C         0.24477721029732    4.33579639434738   -1.13944875416964
H         1.03551823334764    3.99857700985218   -1.77628309013015
C        -0.71576820655193    5.26488800686052   -1.37445186157189
H        -0.91409864143663    5.87756606221058   -2.23062620507980
C        -5.64270099345855    4.23936180387787    1.14623360134964
H        -6.38918730116853    4.47875540789867    0.41630490799641
C        -5.71630176618336    3.54588356810091    2.30495231893567
H        -6.55895841518010    3.06891511590061    2.75752941725227
C        -0.09533571338604    1.55282746569685    1.26041202784961
H        -1.03730181938422    1.93545290402679    1.68364308092601
H         0.34128471276858    0.86300070130909    1.97966323301005
H        -0.34895124258912    0.97641394176564    0.37294410910317
C         2.23564756952386    2.39503895883331    0.11369587548375
H         1.98572988588033    1.96537411664899   -0.85443261930764
H         2.80918712929225    1.63602146573531    0.64123332613980
H         2.89842223431984    3.24091065003714   -0.06893074390386
B         0.89020211772563    2.80096215286511    0.92198638558622
N         0.06095089857045    3.84741078005063    0.11949174665228
N        -1.46983675914251    5.32777124956406   -0.22939491112921
N        -4.33639705856532    4.64442414862118    1.01815675630168
N        -4.47825509093651    3.53141708680743    2.86861514205154

