59
CSD_code = PIKPUW | q = 0 | S = 0 | Stoichiometry = C20H28B2N8Ni | MND = 4
Ni       -5.19546039337220    4.54429732538858    7.11066634701992
N        -5.40487778328277    5.59534353800532    9.80138179083119
N        -6.83690158429406    4.02522312749879    9.43754134390121
C        -5.83125075479743    4.70016478297843    8.87920907490828
C        -3.34778934807616    4.38404088971136    7.65405697688896
C        -1.40923557131749    4.18349626658747    8.74904466381765
H        -0.69145527465051    4.35490238743826    9.52543752981166
C        -1.35549598258740    3.42186319089596    7.63287815119528
H        -0.56491094449611    2.79943695575253    7.27288040581116
C        -6.13504924759635    5.45683785899374   10.95124598084742
H        -5.96665346143613    6.06491327098033   11.81702618588994
C        -7.03383651758426    4.46989452708200   10.70723458745566
H        -7.79177425592227    4.06595829714105   11.34474102379764
C        -4.28301682745379    6.46700462098894    9.59981071800953
H        -4.33803124189805    7.29792424075922   10.30791378811430
H        -4.31835117507920    6.85801985142171    8.57578773032826
C        -2.97098902982032    5.71284262602932    9.80918363870556
H        -2.15253865104746    6.43921354763956    9.88426518954983
H        -3.02595059279039    5.16318984436162   10.75842905702511
N        -2.64231381827074    4.78254715044335    8.75135261398198
N        -2.53071111124322    3.56317380698931    6.96745218252175
B        -7.58637227337964    2.90882271061579    8.65651258767708
C        -8.97665739217244    2.52483496357280    9.40073346218923
H        -8.78786799554583    2.17070870642952   10.41226423532157
H        -9.49620790972316    1.71418311028439    8.89449923925254
H        -9.66813985699655    3.36440562039076    9.47387074875985
C        -6.55659019874306    1.66599109385369    8.47989163902647
H        -5.59992475216808    2.04108796013751    8.10736494698465
H        -6.91670973664792    0.91902666284567    7.77585851082040
H        -6.36087528733134    1.15732074904074    9.42194642036259
N        -4.98604508317444    5.59535323108349    4.41995109783926
N        -3.55402118676457    4.02523259171289    4.78378960908022
C        -4.55967164859588    4.70017388571685    5.34212279119038
C        -7.04312987777682    4.38403736126602    6.56727580789748
C        -8.98167785310613    4.18348201326558    5.47227939290950
H        -9.69945551677656    4.35488535362511    4.69588344422259
C        -9.03541715195261    3.42184652005484    6.58844406470150
H        -9.82599891646506    2.79941369179659    6.94843746909409
C        -4.25587399871662    5.45684871270237    3.27008665647303
H        -4.42426871778752    6.06492467342073    2.40430659552407
C        -3.35708655352220    4.46990504259092    3.51409674103065
H        -2.59914892006561    4.06596924425918    2.87658984333893
C        -6.10790851577379    6.46701045538941    4.62152408368048
H        -6.05289795060209    7.29793144556908    3.91342225917377
H        -6.07257490975474    6.85802418944683    5.64554766760757
C        -7.41993315934922    5.71284307537836    4.41215056766166
H        -8.23838669225375    6.43921083750584    4.33707328817689
H        -7.36497054898127    5.16319452383586    3.46290277363897
N        -7.74860357500564    4.78254131359916    5.46997783157059
N        -7.86020574599771    3.56316368034238    7.25387569261077
B        -2.80455365715879    2.90883021993532    5.56481893311924
C        -1.41427586675940    2.52482705321896    4.82059331853654
H        -1.60307331834757    2.17069645867162    3.80906555744971
H        -0.89472846582616    1.71417466775623    5.32682995732582
H        -0.72278795679520    3.36439241527640    4.74744743485472
C        -3.83434837924249    1.66601096335946    5.74145235482540
H        -4.79100345559648    2.04112163683190    6.11399390245675
H        -3.47422873523494    0.91904125652248    6.44547975827956
H        -4.03008467289292    1.15734380160794    4.79940033492351

