43
CSD_code = PIKRIM | q = 0 | S = 0 | Stoichiometry = C14H20BClN6Ru | MND = 9
B         9.66027478253268    2.72833500721536    0.71081785990253
H        10.22529145690958    3.67982154638223    0.29697511986447
H         9.30948304689045    1.94186325758824   -0.11863285646326
C         6.73678670503689    2.97218264083070    2.80639223285626
H         6.02027085634986    2.54445697314920    3.48199748571903
C         7.80768448500695    4.33420194555134    1.64426892546924
H         8.13516848965796    5.22781818326295    1.15500804114400
C        11.83938002834206    2.13983699411512    2.04566526873910
H        12.47911820053707    2.86775401555005    1.59180358478737
C        11.10877807396923    0.58620033714025    3.23116117348492
H        11.03728581741385   -0.19693310372979    3.96217117826444
C         8.64806369390626   -1.78973962282697    1.82126381645843
H         9.55874451015316   -2.37650371041797    1.86775006675074
C         7.74913109156205   -1.83828657077811    2.89176369274254
H         7.97411301704749   -2.44309971877455    3.76427785469013
C         6.49162323316802   -1.16393692466191    2.82526038781854
C         6.19826887920769   -0.42775255881478    1.66938908981633
H         5.23054148605921    0.05370826681855    1.56786115805274
C         7.11050586323053   -0.38947617499135    0.57604035220794
H         6.81912317056965    0.11795866437308   -0.33758912628147
C         8.32969905480244   -1.08176746157340    0.62206528413778
C         9.18204389329627   -1.20503290666782   -0.61867972890982
H         8.92393579190716   -0.37934265754632   -1.29139160307969
C         8.82222312966457   -2.52553610674417   -1.31229688232210
H         9.06019676250508   -3.37065896666253   -0.66941634836446
H         9.38663442799161   -2.62524626523346   -2.23579849609734
H         7.76085214448811   -2.56081552172262   -1.54949895112374
C        10.68319655508533   -1.13662561237349   -0.34191848481609
H        10.93059333336575   -0.23387177915920    0.21043385623682
H        11.22592595260945   -1.11575079114515   -1.28367528078155
H        11.02610994377009   -1.99991748591850    0.22311065961598
C         5.53382610302577   -1.26399109848557    3.97068566692384
H         4.57280828770342   -0.81964419908501    3.72193018978548
H         5.95076533420931   -0.73700457011504    4.83219403480664
H         5.38521736035295   -2.30525359650626    4.25391812752856
Cl        8.19953504362010    0.80784473411309    4.76934436662612
N         7.73290454310191    2.28642538960013    2.26353720926943
N         6.74771943598188    4.25043999276676    2.43322981558753
N         8.42217328845132    3.16168055315563    1.52285189026808
N        10.55440714784896    1.99482623299264    1.73582429135141
N        12.21994242688133    1.27250276563609    2.97070319439638
N        10.08618091285198    0.99374000121975    2.49253687635835
Ru        8.17937223893629    0.33228990247352    2.47636500658014

