93
CSD_code = PIKRIL | q = 1 | S = 0 | Stoichiometry = C45H40CuFN3P2S(1+) | MND = 4
Cu       -0.55142590078952   13.58527263509484    3.22919907543590
F         0.13188284989083   15.99313038261547   -2.71518605780848
N         0.90506815971727   15.01475669872861    7.12779843957437
H         1.35628890394231   15.90678494013952    7.27243850338522
N         0.98590777182913   15.48547970713640    4.89104576190814
H         1.29673312201700   16.42123404247380    5.16166430863251
N         0.77400414470721   15.25553472069766    3.58133280023476
P        -2.45174510056738   14.84853486089853    3.38124612195729
P        -0.45454054790003   11.62108067748836    2.11067556625746
S         0.02351425587314   13.10460871618942    5.54493835825797
C         0.66851895384640   14.59775976495252    5.87863132223612
C         0.95110695483204   16.22561190373143    2.76069066322833
H         1.23430442457688   17.21084162805457    3.14424913570136
C         0.76816949467394   16.12852301003089    1.33440585776321
C         0.70480443142898   14.90149914321660    0.66621972203091
H         0.82584437074244   13.98387622427111    1.22406110052988
C         0.50600664784863   14.85291766157844   -0.69678863772949
H         0.45885875885176   13.91329888052882   -1.22344467168366
C         0.35600204308105   16.04110419922322   -1.39527201435055
C         0.42831827157712   17.27389365243020   -0.76649195537521
H         0.31933868279636   18.17796598924096   -1.34363763957467
C         0.64542509447646   17.31073874335980    0.59449383833726
H         0.70675159949246   18.26494631408432    1.09602155069981
C         0.64865495455072   14.22782195638108    8.30818547432124
H         0.23199902245810   14.86737005914283    9.08395376313966
H         1.56656016441673   13.76527099641443    8.67661811998689
H        -0.06309730296951   13.44390242252730    8.05805295409866
C        -3.88938269407010   13.75408537073398    3.59740230263889
C        -3.64094950102716   12.51167922017440    4.17843903242670
H        -2.63390033956516   12.26080742541095    4.49210931561248
C        -4.67111263085494   11.60741973043112    4.35263544518843
H        -4.47124441193082   10.64716651475113    4.80378187236395
C        -5.95178660304628   11.93489315820902    3.93589671799931
H        -6.75748691579697   11.22851108706727    4.06478745400087
C        -6.19958534697198   13.16560519576173    3.34906422435935
H        -7.19751096817610   13.41706656137262    3.02277916319630
C        -5.17369754124811   14.07805101302891    3.17530438319545
H        -5.36899397484213   15.03265293964011    2.70787965619428
C        -3.01474116455801   16.07292048444926    2.15905679379879
C        -3.80953744476364   17.16774791158767    2.48933862470441
H        -4.10969212259288   17.33053392058572    3.51548620653175
C        -4.21446323852286   18.04374983457492    1.49887319092495
H        -4.83136788307918   18.89203552639193    1.75510713708619
C        -3.83690000789324   17.83372028583889    0.18136685293184
H        -4.15869819777232   18.52099819260283   -0.58594452883714
C        -3.05197143964076   16.74161673503429   -0.15077001257403
H        -2.76296791590060   16.57160889017194   -1.17697340503308
C        -2.63859699746514   15.86520108736960    0.83561983938246
H        -2.02266850621705   15.01080796487216    0.58828317898226
C        -2.39375136738846   15.79301621497462    4.93560681774670
C        -1.74333532008035   17.02690064398596    4.94051473177006
H        -1.42392027335502   17.46228407258336    4.00133259716435
C        -1.52642445284251   17.69390294319011    6.13142835050526
H        -1.03811979480540   18.65810128007404    6.12828445871113
C        -1.94003096100277   17.12945540313246    7.32869542742194
H        -1.77172501693864   17.65300811868989    8.25767995906568
C        -2.57643464168755   15.89911491608104    7.32960685863959
H        -2.90254134465423   15.45998217424125    8.26034035274046
C        -2.79883472821174   15.22765761770628    6.14056630589007
H        -3.29010200283625   14.26508614694866    6.14450521792088
C        -1.42502805042299   10.24112120319618    2.79683752159625
C        -1.10589275279801    9.86829632416918    4.10172480617245
H        -0.31687040041439   10.39327060810429    4.62615149840656
C        -1.79389181445261    8.84009156766688    4.71536402426775
H        -1.54206722931225    8.54974020735333    5.72426506980784
C        -2.80745101836415    8.18343320912964    4.03335613795505
H        -3.34605183817205    7.37943121517801    4.51185799203634
C        -3.13185134538545    8.55968199454642    2.74067521423844
H        -3.92236615044551    8.04892181430582    2.21138187745351
C        -2.44668219806400    9.58919122989806    2.11831143589925
H        -2.70383141645088    9.87725265806183    1.10906308695449
C        -1.07061035475749   11.77553322791339    0.40887547471241
C        -2.32420019680933   12.37044546117737    0.26929214478172
H        -2.87403776767122   12.65704746324191    1.15998791417443
C        -2.85985252549840   12.57936489226778   -0.98675216103674
H        -3.83301967647088   13.03600007747061   -1.08873041089704
C        -2.14293387845014   12.20369509097162   -2.11312797363217
H        -2.55748000676959   12.36799078008605   -3.09575600158657
C        -0.89308153836343   11.62146088371412   -1.97868731382366
H        -0.33472717572740   11.33422874252339   -2.85717475653422
C        -0.34960179559967   11.41105524352162   -0.72161495437804
H         0.63080326848225   10.96722053996419   -0.62127023516312
C         1.18326555204262   10.84889770836951    1.95508160648350
C         2.29858673725677   11.58043469399644    2.34833924323535
H         2.16505756540210   12.58216068647427    2.74115020252665
C         3.56093219754308   11.02273511982651    2.25357745709391
H         4.42728783191129   11.59025089223645    2.55890046339578
C         3.71030542192392    9.73276072446881    1.77170417471955
H         4.69474419729148    9.29659971388011    1.69731586175271
C         2.59847154861083    8.99614417103789    1.39091836307870
H         2.71913906504903    7.98829537209054    1.02325935792793
C         1.33441575148596    9.54711660390936    1.48373934212169
H         0.46244151782569    8.97448136818807    1.19819755297945

