67
CSD_code = PIKRUY | q = 0 | S = 0 | Stoichiometry = C22H33BClN9Ru | MND = 9
B         9.70163042765579    6.85327306731002    2.87369445592132
H        10.70690322890753    6.27304311962062    3.16521404102070
C         6.89428370384322    5.08821841207963    2.65317683962219
H         6.18125345320961    4.36710014446753    2.26427208484505
H         6.39225586751736    6.02927258431975    2.86944379260367
H         7.32516551632171    4.71352474238875    3.58017969155553
C         7.94078440664636    5.29251951046051    1.62967331710807
C         8.99866786588220    5.07124393583674   -0.18694566105072
C         9.33954310802190    4.59413000174116   -1.54944376064048
H        10.04214550723589    5.27122923585815   -2.02795526023215
H         8.42592977823081    4.54543273024034   -2.13589902433415
H         9.75947863897104    3.59012829220312   -1.49909716974169
C         9.25181751102767    9.96098953674377    3.97292621562553
H         9.40831649777957   11.03123545772678    4.07214584806399
H         9.60415041994981    9.45589423330371    4.87086298610023
H         8.19006219441552    9.75050073465037    3.85956566750218
C         9.99277546271857    9.50142220802887    2.77931659543724
C        11.22117854055750    9.59024824088004    1.06084860476177
C        12.09204016462444   10.14458125052793   -0.00416761661171
H        13.11672804420020   10.23152191033759    0.35577413017193
H        11.73739411455227   11.13997590736237   -0.25627404262665
H        12.06367478844896    9.51131804392326   -0.88817742406015
C        10.24272776981299    5.93425871866272    5.84839615675086
H        11.11544806404942    6.56065038760999    5.67239437530066
H        10.39245874858041    4.98158366235439    5.34335645324181
H        10.12945961140496    5.76244712032854    6.91476347166524
C         9.01540137307286    6.60050091593240    5.34932971916947
C         7.11435003779282    7.49298099307530    5.25316263732066
C         5.78677913964116    8.00976971717998    5.66221759041962
H         5.90638167007684    8.77037541479678    6.43144852023881
H         5.18707457529159    7.20201191190293    6.07744810438899
H         5.28136203780799    8.43599404911626    4.80032061817028
C        12.94700627736453    5.38880990417391   -2.72493983564582
H        13.93089076491659    5.49757974656203   -3.18024345183405
H        12.28206926522703    6.12414434604246   -3.18269804990109
H        12.56554221421650    4.39265020337324   -2.93590545266828
C        13.02727772844271    5.64115491352242   -1.25136416470328
C        13.60964178525474    6.85490775371521   -0.77686540208585
H        14.01045271597397    7.56088112965440   -1.49662231031387
C        13.75565399172450    7.09059790889144    0.59430095371743
H        14.28419914563888    7.97708222311481    0.92462390358865
C        13.33953517629319    6.12712166025532    1.55938006549405
C        12.72101238890432    4.95905935823380    1.08761747985714
H        12.43422024353264    4.18571578251258    1.79281250130830
C        12.57576602904824    4.71063619617668   -0.30620546603992
H        12.18835250108534    3.75225147044525   -0.63416297326405
C        13.70796481704643    6.25779580050248    3.01865034755627
H        13.03402478475608    5.61648140597174    3.59812734077656
C        13.59235173011815    7.68266585056944    3.55905691357802
H        14.34875961841190    8.33443042483568    3.12847354020328
H        13.73438987095451    7.67663288890404    4.63725475541312
H        12.61071705793914    8.09830222428744    3.34655927263075
C        15.13942012243089    5.73347590362726    3.19428642088511
H        15.21730538735563    4.70227959161497    2.85600160712740
H        15.42528033682157    5.77655312493882    4.24213283575778
H        15.83895294604464    6.33798569721106    2.62033979957447
Cl       10.51853091270958    7.71042330644666   -1.69318140104165
N         9.03303020429890    6.06649245201787    1.71580185844030
N         9.71310536665075    5.91208330711422    0.55375292644177
N         7.90108875739671    4.67108479468052    0.45917305096343
N        10.10212265681467    8.24803047579732    2.31138879339912
N        10.89670687915619    8.31127799058687    1.21562446857718
N        10.67772957788287   10.34487440728646    2.01884177178835
N         8.79743844759538    6.98366776415673    4.06939931356523
N         7.57262815517030    7.55815045754812    4.02326499316533
N         7.98362747695535    6.90435239006971    6.10811641136070
Ru       11.55538239767095    6.70209095406410    0.15823522459541

