93
CSD_code = PIKROR | q = 1 | S = 0 | Stoichiometry = C45H40CuFN3P2S(1+) | MND = 4
C         6.07897964999824   -2.55309230338490   23.77442073803948
C         5.14686775696612   -3.91960728867643   20.66011578298887
H         4.06515756272444   -3.91305291388295   20.82357673492590
C         5.59763802057280   -4.37996831742398   19.37059134774352
C         4.68148158517221   -4.42222493924884   18.31314751074063
H         3.65832383250049   -4.12221766489208   18.48267126510639
C         5.07527099865109   -4.82110571700807   17.05296441147316
H         4.38245491752794   -4.84330622395608   16.22712647015473
C         6.39225289050129   -5.20677216298230   16.85814484334520
C         7.31555684207700   -5.21001733357712   17.89255674454660
H         8.32689386959639   -5.53246648289815   17.70534853071615
C         6.91672813718068   -4.78769247857657   19.14315386051561
H         7.62420066613990   -4.78281258603663   19.95991057736837
C         5.95062985863319   -1.72614001237829   26.08279437988639
H         5.19514602079805   -1.11425085809566   26.57129869383949
H         6.79627358365762   -1.10489463727575   25.79415631797727
H         6.30149193767894   -2.48963833636716   26.78037096600007
C         5.13843071168247   -0.48706036960049   20.69514780993119
C         4.79324903967081   -0.13671042378779   22.00007109508160
H         5.56824080382726    0.16129366983180   22.69441038462801
C         3.46913608388894   -0.15793354908837   22.39651958208614
H         3.20450868633469    0.13140974400496   23.40323563555834
C         2.48155059957030   -0.54295640125722   21.50208369402128
H         1.44746706082050   -0.55412199849521   21.81154084790680
C         2.82256842053474   -0.90833225582095   20.20945574332799
H         2.05289387127177   -1.20519463670293   19.51255773329623
C         4.14613104236798   -0.89031221906036   19.80597252846868
H         4.41423606642710   -1.17600391831680   18.79795128780541
C         7.65814394018105    0.86077421964749   20.93829279057537
C         6.97765764812441    2.06235866265537   21.11587448141663
H         5.92627001530417    2.13496556169654   20.87169373902003
C         7.65198130769224    3.16038471679062   21.61851322260433
H         7.12568910432102    4.09302350958661   21.75710334555452
C         8.99633979767650    3.06848908236591   21.94506470161082
H         9.51266389120598    3.93025074996781   22.33949455460048
C         9.67521277770792    1.87321934173359   21.77142805255838
H        10.72050650902662    1.79427095061425   22.02981515873289
C         9.00688712151227    0.77227504452792   21.27041913114564
H         9.52371868490042   -0.17161628223564   21.14153164009752
C         6.90021078493114   -0.36601275512337   18.46760300206765
C         6.97182416763104   -1.48868375679085   17.64808845791381
H         7.04613342793735   -2.46812393847602   18.10092897071596
C         6.96029760786108   -1.34864014099727   16.27262877887215
H         7.01473317499668   -2.22403500497638   15.64270962362334
C         6.88780692101217   -0.08454959256738   15.71004262749930
H         6.88241930935011    0.02906298295666   14.63676715342264
C         6.82986290279682    1.03602021632751   16.52410782992105
H         6.78017406254292    2.02033748914826   16.08355562313868
C         6.83649420410355    0.90223170540177   17.90092863216362
H         6.79878463569209    1.77882655698291   18.53114882120954
C        10.34283310321269   -4.83219205897147   21.76996113892466
C        11.66062824662306   -5.26876286990553   21.87945437683595
H        12.45596447781925   -4.69955607957726   21.41779348424209
C        11.94174556944125   -6.42501592019027   22.58250879367683
H        12.96222933641745   -6.76687095902441   22.66751584777908
C        10.91793088673728   -7.14357634953297   23.18163417690455
H        11.14426417306312   -8.04439256389524   23.73135198478952
C         9.60783435297327   -6.70446461194999   23.08407790111912
H         8.81380609906560   -7.26123126423657   23.55911829447359
C         9.31966696701805   -5.54842556450756   22.38133692809692
H         8.30104213095604   -5.18378491046751   22.31058596075091
C        11.27362019935885   -2.21230923945568   21.37854597769987
C        11.23498297398556   -1.76782576130991   22.69953873304630
H        10.43000874554055   -2.09279742786294   23.34641704519148
C        12.21367512285893   -0.91555069062815   23.17196735743935
H        12.18201104354025   -0.57489029812609   24.19587431881314
C        13.23219661746604   -0.49762253684296   22.32870191508136
H        13.99760049162738    0.16896661221487   22.69628764990889
C        13.26877426817470   -0.93349690059269   21.01467579362975
H        14.06261359605462   -0.60824614401750   20.35905124439764
C        12.29201577730909   -1.78842917140861   20.53323693195891
H        12.32479727616635   -2.12376033066838   19.50630658286764
C        10.29274758253503   -3.67313613081529   19.12872572652016
C        10.02016072611556   -2.64792506885509   18.22426514124898
H         9.64283005567992   -1.70176980242622   18.59630683777920
C        10.23475793124836   -2.83604419280182   16.87307051635400
H        10.02605954782100   -2.03631773373554   16.17834067432853
C        10.71490929120448   -4.05381991022151   16.41481099671102
H        10.88146435767053   -4.20547440456529   15.35950206335891
C        10.97703600542211   -5.07865426443465   17.30978955801560
H        11.34777214748907   -6.02698738701814   16.95017486992639
C        10.76246738056987   -4.89636783312811   18.66639737371218
H        10.95891379639135   -5.70125892107406   19.36046636389609
F         6.78774220324110   -5.58599485619655   15.63560221815891
P         6.89813426204442   -0.64724690379948   20.26935999940596
P         9.91340207363531   -3.31308344718275   20.86866745751799
S         7.66599399971275   -2.09484913669769   23.59649153518423
Cu        7.82265223569576   -2.51508231291748   21.20412256224670
N         5.38642475869100   -2.32409979835211   24.89758636512120
H         4.45490689767817   -2.70476944340878   24.98672888516297
N         5.38507312765615   -3.16275561160150   22.76905402022831
H         4.37511472440356   -3.28054575302469   22.87416407547233
N         5.93202292642298   -3.51352875104911   21.58969446608706

