30
CSD_code = PIKRIN | q = -1 | S = 0 | Stoichiometry = C13H8BrMoO7(1-) | MND = 7
Mo        1.67531162149245   17.52921524730431    5.71321650958872
Br        6.07161826776196   16.33113746488988   -0.04300539114640
O         2.08372384981236   18.71467470847496    4.12505392748491
O         1.72735278097623   19.41558804374393    5.24992854750507
O         0.09167800213254   17.32418823778459    5.34373644878664
O         1.95636259318877   16.47047405820195    7.17034652331603
O         1.71741430628154   17.77991851444520    7.53790097873954
O         2.20257177125449   15.98737504251712    4.51529161156861
O         3.66174306586169   17.90619883857558    5.53527091973668
C         3.78308517982000   17.26201240758993    3.27463349998990
C         3.04725599367832   16.07431349413376    3.53126909793908
C         3.26023861968541   14.97551079385939    2.67357213218524
H         2.70763794431050   14.06885299049687    2.86616260555460
C         3.58327260042085   18.36869270124512    4.29692854210632
C         4.37402280770240   19.63298249727577    4.02099291685083
C         5.42773339399602   19.97215286283685    4.85610956470720
H         5.64260667363470   19.33009891199721    5.69695296367581
C         4.68063866026002   17.33119965566372    2.22606243813764
H         5.25019808902328   18.23327695486879    2.05187190237660
C         4.14469729792836   15.05304618654356    1.62084078933870
H         4.29677862404805   14.20536092681878    0.96796839434672
C         4.84449907394414   16.22852534444748    1.40805772356937
C         6.16480101168815   21.11657413619320    4.60765375098784
H         6.98611372982540   21.37965612034052    5.25907824810004
C         4.05118394235976   20.44795166532825    2.94276340667642
H         3.21697191147997   20.18257697828979    2.30805427186295
C         4.78931470069128   21.59248166950797    2.70102161805695
H         4.53725037886729   22.22749092481437    1.86344638306706
C         5.84916344172273   21.92520129305945    3.52909284056886
H         6.42545966614709   22.81927132875482    3.33512683432257

