75
CSD_code = PIKSAE | q = 0 | S = 0 | Stoichiometry = C34H28N10NiS2 | MND = 4
C         0.07312999206910   -2.93833165523681   10.44526994722393
N         4.67881758893970   -2.14644528634651    7.04629987291846
N         0.70902762438421   -5.76524804091924    8.16626933245791
N         1.48702727448189   -6.84899435922907    8.21300743541491
C         9.11979965452992   -1.05616172499175    8.25984700655002
H        10.04228829387363   -1.33361164409532    7.77210382468171
N         0.95658278322633   -3.83200795255109   10.76125342841998
N         6.24541787271228   -2.70342182302256    9.82815483512707
N         6.69933413163786   -3.95196802715703    9.95763534003916
N        -1.21248121951225   -3.08310426144246   10.83099188287121
H        -1.43173946304842   -3.79581110670351   11.50482247728934
H        -1.81834123226363   -2.28527346700440   10.75478229579491
N         5.29083074979948    0.04423683460745    6.74401613109515
H         6.03769313349009   -0.25520067873780    6.14145693127179
H         4.97286885544294    0.99521937709949    6.68062014647222
C         3.78714044406486   -7.44947693578054    7.75345040276916
C         2.70957320324244   -5.09106223626495    7.53410778116044
C         1.40405456121108   -4.68084577090305    7.76411653537061
H         0.95753377777533   -3.71186835572424    7.57983685772718
C         4.52355310027329   -3.89620177772879   10.51289075792901
C         2.69920598475008   -6.48810434207132    7.82275242743994
C        -0.63400021534960   -5.83695813105936    8.54631672475628
C         7.08455108828168   -1.68673774113046    9.36366159095496
C         4.93747680341137   -2.62213765091787   10.15053447713324
H         4.38387811869656   -1.69241605108375   10.19515886707675
C        -1.53276698515084   -4.82699473115868    8.22005919572962
H        -1.21802293015635   -3.96664481278397    7.65165111378125
C         3.74819914682872   -4.19090836678321    7.13135356539080
H         4.50744221665818   -4.49387977186390    6.41533614267879
C         3.17137452322357   -4.20374512765167   10.87153352866960
H         2.94760138705383   -4.91022046707565   11.66629459292817
C         4.42354549185096   -0.88527802783735    7.19890462659716
C         5.12165772166049   -7.05148757893227    7.69959725871061
H         5.37672073613456   -6.00440928527934    7.74110812399591
C         8.27579518972096   -2.03969076256226    8.73644855382607
H         8.51487283425216   -3.08591678785108    8.63472137835461
C         3.49017015023281   -8.81295231047723    7.75639423947433
H         2.45539527959161   -9.11426426237820    7.80547048923953
C         5.86593203873819   -6.12206330186649   10.63406825929770
C         5.69495738913190   -4.70024724624801   10.38549855623001
C        -1.06601215568422   -6.94785634520271    9.26497144667601
H        -0.35130973233380   -7.71998143758179    9.49969953808192
C         6.26396188894961   -8.83961599152458   11.09601620462619
H         6.41681419306130   -9.89378755116271   11.27411004760658
C         7.15536384690849   -6.63763299534011   10.77078754133338
H         7.99135071700730   -5.95983345996473   10.69510455977652
C         5.82493007737619   -9.34422271716101    7.62940505174108
H         6.61612789564153  -10.07770324252639    7.58071667584760
C         6.12968986126187   -7.99418335845616    7.63233419849796
H         7.15947599584682   -7.67120523042094    7.59522393152114
C         6.74978900652332   -0.34565610424443    9.51717494686414
H         5.83732974375331   -0.05512168045974   10.01261030391898
C        -2.85065165084309   -4.92972373984816    8.62515656157117
H        -3.54551376049046   -4.14360708101822    8.37085611655438
C        -2.38564536514907   -7.04019595370276    9.66094333904124
H        -2.71719041486430   -7.90278922459286   10.21921913177635
C        -3.28122276886236   -6.03059450901456    9.34616291711870
H        -4.31227927835781   -6.10330970595428    9.65789567780770
C         7.60186709212632    0.62950212420976    9.03287128284465
H         7.33910166949478    1.66964744668336    9.15328631781648
C         8.78461199238334    0.28078425116251    8.40305666700475
H         9.44474950928001    1.04863918272448    8.02862252530684
C         4.50164399174625   -9.75016817669184    7.69648492776970
H         4.25972930569366  -10.80318873821030    7.70030265538941
C         4.78053118322046   -6.99152807463707   10.72244634804474
H         3.77757994911092   -6.62262851762091   10.57674292465887
C         7.35037494110473   -7.98495056949056   10.99781073748857
H         8.35343549906476   -8.37329376056051   11.10000084116643
C         4.98160532727522   -8.33831583026555   10.95734862628055
H         4.13113994597015   -9.00090627768246   11.01912202485103
Ni        2.41472820937822   -2.21576856463514    8.85312237233054
S         2.98325354892760   -0.28894800274001    7.97636968700240
S         0.44967282053571   -1.50919157095633    9.52181313323406
N         3.74180834152600   -2.97789212166104    7.56835641156841
N         2.20386147779045   -3.58143682218777   10.28915739199073

