69
CSD_code = PIKTEL | q = 1 | S = 0 | Stoichiometry = C26H26CdN11O5(1+) | MND = 8
Cd        4.15547947961122    7.78354928999612    9.95248533195344
O         6.19442575941699    6.72734346090182    9.25176852934213
O         3.57380174186670    5.58706886403226    9.35244814903587
O         2.58143566200244    8.26278759201696   11.35518316502250
O         1.93227927316911    7.58077073032478    9.45092931089594
O         1.52798891625567    6.43786673609923   11.18742103393848
N         3.50613499431562    9.97591699663048    9.05918008865907
N         4.47448863340619    7.93405954689503    7.77178533751195
N         5.14699698481881    6.85754575025234    7.26874208291285
N         3.69304902717300    8.67586228555984    5.68872306821664
N         6.69412270753291    4.18904443211171   10.06325554367854
N         5.45446528539995    8.72761606499171   11.54080593099486
N         4.50046312910175    6.25755910044450   11.68071899324113
N         3.85176059313470    5.07729651985620   11.53485940803293
N         4.44297477326935    6.32640688867336   14.04485316646588
N         1.16729709570818    4.61324531868799    8.41740931853933
N         2.01413173153003    7.41249647505911   10.66416479707547
C         2.94609882189651   10.92044378654609    9.79320139221674
C         1.98057244072065   11.79048791824782    9.30172159215802
C         1.58507700075770   11.65377990433803    7.98248525128634
C         2.17640395161152   10.67073534051405    7.20320895638462
C         3.13927788651059    9.84666027364462    7.77915854981767
C         3.81824631920147    8.75954394972658    7.03900121169118
C         5.93221844671588    6.18353637225765    8.17419637692001
C         6.42666361529045    4.87329933019521    7.75946315557442
C         6.53100498701550    4.52587322714887    6.40546008254955
C         6.96760729691681    3.28242992428551    6.01380598925566
C         7.30100933580462    2.33636665473711    6.98041788540583
C         7.21813527119282    2.65129372636381    8.31405637858060
C         6.79921915229184    3.92198871685024    8.73990084801703
C         6.14080354205385    9.84778371472686   11.38829363167165
C         6.92764396826281   10.39454101199834   12.39240848152135
C         7.00832439674739    9.72575296603295   13.60335708695927
C         6.29687098578721    8.54842084237074   13.76494885212956
C         5.51946334354405    8.07849381723692   12.70732388429980
C         4.74489619122877    6.82279509476291   12.80659563434000
C         3.32689729219739    4.81987366681827   10.28710244212449
C         2.51485937192862    3.61759041774992   10.17215756822214
C         2.76757295607245    2.50196008243952   10.98154027076895
C         1.98983112407233    1.37223483175894   10.90111373995278
C         0.91446313583540    1.34378138873865   10.01426248701563
C         0.64502759522263    2.42463198373777    9.21303361359447
C         1.43817538982787    3.58453150513607    9.25456126158070
H         3.27404541369010   10.97640043855561   10.82296113859737
H         1.54421461467062   12.54136768755354    9.94008028091146
H         0.82504399636934   12.29551919922687    7.56353026479704
H         4.72818374249058    6.33323973304149    6.50670339156015
H         1.86010843691072   10.54021778987367    6.18029678407558
H         3.29473795277417    9.44221857676341    5.17643065937327
H         4.32239413254625    8.08199153779977    5.17539540250574
H         7.09593648720895    3.54029819678808   10.71632334048738
H         6.56344536510061    5.15068139555851   10.33914276012478
H         3.43459737795667    4.60357450931859   12.33067050965385
H         6.30869567128847    5.26237310822561    5.64713233688576
H         4.44216442323369    6.97928266854528   14.81120469551320
H         3.70544095272939    5.64045650462909   14.10240667129756
H         7.05634463701607    3.04142332778570    4.96675193500289
H         1.60115233846404    5.50962811427969    8.58892350186147
H         0.25581778322272    4.63119729685000    7.99104769933773
H         7.63973677367711    1.35741284172923    6.67928969323692
H         7.49066810614343    1.92251501310388    9.06317008919385
H         6.05381643919845   10.32797171119922   10.42179357032811
H         7.46434347673511   11.31487501873903   12.22836513609002
H         7.61707985987621   10.10944292161183   14.40777422265105
H         6.37108106372515    7.99256759662348   14.68640243535472
H         3.61780053626645    2.51707612987592   11.64824379774834
H         2.20645857932648    0.51502586603515   11.51814230818424
H         0.29154319422116    0.46434619078633    9.95628099106820
H        -0.18791096122727    2.39743012462420    8.52602650463665

