68
CSD_code = PIKTOS | q = 0 | S = 0 | Stoichiometry = C25H38AuO2PS | MND = 2
Au        3.26801242643264   -0.08343364962310    0.94679959542530
S         2.56302138264951   -2.21037789707665    0.28047336166088
P         3.93932018291460    1.99807226528027    1.59672908232880
O         1.92165275147545   -4.80839434330730   -0.54613849058800
O         0.26564180559073   -5.99483425881631    0.34100658574583
C         0.36565989400377   -3.71226726843869    0.91615795090970
C         0.95131221265291   -4.83255087690231    0.16808043796162
C         1.02076209198199   -2.46477350681200    1.01386560965368
C         0.37547793413974   -1.45073676397580    1.73134723705176
C        -0.84559467014884   -1.64384433771056    2.33165075317668
C        -1.48097105875762   -2.87639774351824    2.23996185284696
C        -0.87218172447732   -3.89174717411864    1.53643474494468
C         5.59020822033636    2.12181262847108    2.44982417423572
C         5.72510516244197    3.20357367131180    3.52221785673773
C         7.16027204881452    3.22580046576504    4.04669128361939
C         7.53869118338694    1.86666268066289    4.62730119275788
C         7.38589565135467    0.77537762649619    3.57182001597291
C         5.96101007069731    0.75260650072574    3.02631770652049
C         4.07009466833385    3.14214505613478    0.14506797904345
C         5.00034068972433    2.52185846695552   -0.89957556282952
C         4.97219175434026    3.35144753229856   -2.18041161795681
C         5.37389884943811    4.79495863452010   -1.88932817790684
C         4.45464802689461    5.40516542300679   -0.83522088014032
C         4.48967071985561    4.57866401644649    0.44943914974699
C         2.67935254812093    2.75534399135911    2.72691648934315
C         2.44005748411825    1.77047037780660    3.87519449498500
C         1.31724210680215    2.24564094588512    4.79151060827681
C         0.03112291860638    2.42933349196400    3.99492378006664
C         0.25527447892449    3.44000245156249    2.87650829061370
C         1.38132917298673    2.98700319690803    1.95029632956920
H         0.70327483678585   -6.68279466772277   -0.18245155442497
H         0.86747663132729   -0.48743339870102    1.80070077818766
H        -1.31186120024879   -0.83309122821640    2.87521169866791
H        -2.43931837039605   -3.03361044152856    2.71126354287187
H        -1.35299659607793   -4.85346177701092    1.44980270097337
H         6.30206959122075    2.34367941679397    1.64203920654785
H         5.05328466714852    2.99230058314344    4.35575925949494
H         5.46695438139630    4.18450914375474    3.11892833315842
H         7.25664407184920    3.99873595193916    4.81188507202404
H         7.84391803975233    3.47585785388274    3.23173015304720
H         6.89034241104538    1.64270075508044    5.47753564036946
H         8.56765868052162    1.89167101302694    4.98996935907331
H         7.62978371303030   -0.19748360777702    4.00131618743109
H         8.08391207410533    0.96297038573778    2.75237244074592
H         5.87005376188703   -0.00964609992640    2.24681948406270
H         5.26787215318572    0.48643398828741    3.82786335296493
H         3.05755831176604    3.14688943231174   -0.28281189351267
H         6.02498866845132    2.48764601326759   -0.52098255805554
H         4.68587765907539    1.49408623021834   -1.10681780649417
H         3.96504875791930    3.33178518360998   -2.60246972293257
H         5.65082404041213    2.91592417159765   -2.91560402533423
H         5.32819719052566    5.38495015925198   -2.80616509589829
H         6.40487658964483    4.81928604478938   -1.52828639543610
H         4.76209912590358    6.43058191013356   -0.62012889432515
H         3.43235333461343    5.43609282415623   -1.21936845519659
H         3.82390932192131    5.02418429160470    1.19253939768490
H         5.50623334748533    4.58983730031960    0.84804954832532
H         3.04761941027289    3.70849505244598    3.12442380670681
H         3.35474155443286    1.63575396527746    4.45643765302545
H         2.17350902681723    0.79525074491442    3.45530663791333
H         1.59843755544828    3.19523132744369    5.25441324191895
H         1.16502866733477    1.51555540816951    5.58840905246939
H        -0.77141808107785    2.77069249028483    4.65096113884318
H        -0.26859152290671    1.47121707177764    3.56558162412054
H        -0.66038284226093    3.56686638472168    2.29602295870181
H         0.51303334908795    4.40937196195078    3.31116174809038
H         1.53158664190943    3.74649931282185    1.18018905280190
H         1.09238206299247    2.05518324497338    1.45303149759946

