75
CSD_code = PIKWIQ | q = 1 | S = 0 | Stoichiometry = C37H31N4NiO2(1+) | MND = 6
Ni        2.32809444434871    2.22035597896021   -2.76433364965321
O         2.29232635567731    0.89290572946022   -4.24176540644712
O         4.00339820060783    1.53569616745126   -3.10250147574216
N         0.58078878036985    2.70166393594355   -2.64129348600922
N         2.42472516701935    3.52911449578416   -0.90867744845098
N         2.59338831869949    0.88527955047046   -0.89037179220857
N         3.28539873795212    4.18234999770837   -3.45701691408629
C        -0.24592639078636    2.48824487904820   -3.66481862165375
C        -1.58144700491019    2.84761470868792   -3.63029658473219
C        -2.08481030568442    3.45002581516081   -2.48777838132869
C        -1.22831777121649    3.65504028388108   -1.41918833267622
C         0.09937082297413    3.26484678441906   -1.52433213228855
C         1.06437045219419    3.39796640600922   -0.38066841341940
C         3.41955060654324    2.97701973946713    0.00306179112840
C         3.36234976244988    1.46846035279975    0.02642973058852
C         4.10696857701653    0.74304361732555    0.94560998365896
C         4.06251030650174   -0.64097911084506    0.89163861602906
C         3.27800277986797   -1.24793902113212   -0.07205026617285
C         2.54824816467358   -0.45069733423850   -0.95075182776477
C         1.69372960425194   -1.03340022654666   -1.99474873723264
C         0.42231741028315   -0.51099606988421   -2.22105966922416
C        -0.36915474672070   -1.02216771994057   -3.23221701860868
C         0.10201423661258   -2.05261677715721   -4.02867406002628
C         1.36203292179652   -2.58144839422783   -3.80268306948085
C         2.15546511473549   -2.07953944007801   -2.78817538789436
C         2.72488861539990    4.92037444964324   -1.24999842921587
C         3.63810498859299    4.97880282027881   -2.44836711444653
C         4.73339306531035    5.82354576938087   -2.50534071532036
C         5.50063711969396    5.83671125200947   -3.66196255032930
C         5.13213464592429    5.02170608866477   -4.71368296662679
C         4.00865546228936    4.20485412433573   -4.58226044380696
C         3.55313519373103    3.35040751084900   -5.68593906244563
C         4.45248536426281    2.59560033994168   -6.43364615167905
C         3.99280713517468    1.77477896919472   -7.44681543281983
C         2.63847092792170    1.70862875973421   -7.72901472168659
C         1.73978919625308    2.46681406053823   -6.99638328962076
C         2.19154079224691    3.28141184436876   -5.97493945009937
C         3.52453270957699    0.77402793652699   -3.99853797869685
C         4.36270928339600   -0.20065019132004   -4.70694178600331
C         3.78924862909883   -1.01346355717543   -5.68156038892602
C         4.57229172782764   -1.92919846152137   -6.35638086505643
C         5.92380145176024   -2.03611972670914   -6.06191313751086
C         6.49583260541445   -1.22859796213877   -5.09049167516137
C         5.71843343484701   -0.30999804158932   -4.41080718732395
H         0.17803004363039    1.99524122807077   -4.52982565531344
H        -2.21244005819831    2.65643560606790   -4.48282251988457
H        -3.11982313333432    3.74752757569744   -2.42640679126748
H        -1.58135764813409    4.10833066533659   -0.50623092109801
H         0.79631881544917    4.23792695287242    0.27444456319678
H         1.00416206434593    2.47885072954491    0.21107506907140
H         3.29674950663149    3.37427390393521    1.02270202878541
H         4.41045652872712    3.26613633520255   -0.36053518165658
H         4.71323838141185    1.25298971941853    1.67744834924420
H         4.63254242286546   -1.23429909307810    1.58997307515729
H         3.21008426750855   -2.32168146154759   -0.14067584982200
H         0.04679925419068    0.26882854572545   -1.57263484551967
H        -1.35738495368375   -0.61830039029867   -3.39799677842234
H        -0.51377330880249   -2.44631342621711   -4.82306914565845
H         1.73150362345287   -3.38503391172698   -4.42166174205613
H         3.14829014881163   -2.47563179196918   -2.63088137379798
H         1.79136045060084    5.41754727491150   -1.53253139960121
H         3.15993622899161    5.46058942918715   -0.39958160483014
H         4.98214703393562    6.45467005823405   -1.66682049501056
H         6.36565169733949    6.47747132102902   -3.73767066911963
H         5.68723456717092    5.02024803742114   -5.63792822670708
H         5.50655472951417    2.62771820394504   -6.19994596750491
H         4.69362679254573    1.18098626292556   -8.01389653811485
H         2.28416244672921    1.06740038383212   -8.52167791085746
H         0.68533955079886    2.42364434128573   -7.22712363161402
H         1.50368174524436    3.89906412810086   -5.41301347200258
H         2.73553312147843   -0.90644207185169   -5.88960790368527
H         4.13451212869475   -2.56102192916526   -7.11432614422151
H         6.53427372729361   -2.75195599228610   -6.59157857589496
H         7.54791115095059   -1.31785528790517   -4.86569757726195
H         6.14149177986083    0.32957431976073   -3.65015626406938

