49
CSD_code = PIKXOX | q = 1 | S = 0 | Stoichiometry = C20H22AuN6(1+) | MND = 2
Au        5.49729099239560    5.06941009556644    4.99748552815587
N         7.90979999950369    4.83101436920087    3.07964382958182
N         8.37074966133140    4.30583011490803    5.10737379506840
N         6.97023256041415    3.52257828509860    6.73495698094620
N         2.46683447082039    5.36872032173911    5.01152279120827
N         3.26488261545978    5.54889263854311    6.98998258597599
N         3.81386418601450    4.67430885128719    9.03317884740020
C         7.38153589051296    4.76541449425608    4.30746692395074
C         9.50580972843246    4.07502823641444    4.37286229196491
H        10.40070731118486    3.66650197973925    4.79008685957090
C         9.21168600159725    4.40688053455221    3.09434006872567
H         9.81674494735734    4.37523957530605    2.21215887520879
C         7.22264425690858    5.26385399010548    1.89573108731844
H         6.25987633493591    5.68482459064594    2.17959181394809
H         7.06041023095003    4.42072914740151    1.22194305640353
H         7.81024584082209    6.01977119611058    1.37440780551903
C         8.17154617332622    4.02148184729334    6.47332874182548
C         9.13882171907480    4.26216968297818    7.45137361157458
C         8.80488666314005    3.86670006051076    8.74581962041639
H         9.52078587884913    4.01719600481594    9.54030583186475
C         7.57563840184661    3.29164616626904    9.01283758136050
H         7.32060740585622    2.96005175461764   10.00564107323170
C         6.67322736754241    3.16273640587136    7.96825576696665
H         5.68422536792548    2.75242020059879    8.11094003100668
C        10.45235837515153    4.92676905649595    7.18590321523280
H        10.39220625337399    5.61679347865369    6.34725814846424
H        11.22235791471838    4.18548289421764    6.97181313223690
H        10.77018840426099    5.47691173708116    8.06870042336052
C         3.62030841102860    5.39808166133728    5.69648445384139
C         1.39884772943497    5.49130721641640    5.85939848813394
H         0.38734477521658    5.49601361048121    5.51046765744198
C         1.90054564087425    5.59256050499578    7.11104220367229
H         1.42034681649525    5.69024519198561    8.06151560648625
C         2.33488858844468    5.23383613225651    3.58820798274285
H         3.31588590291236    5.04352405087969    3.15691934477734
H         1.92200372496746    6.14749410660522    3.15688591223606
H         1.66981815549790    4.40349345768281    3.35025906159349
C         4.12167408275588    5.57784511747627    8.11678286001828
C         5.14039184572941    6.52022264509798    8.26398116809516
C         5.88544298287063    6.43013142690209    9.43829557253471
H         6.68583300043122    7.13570229565473    9.60769686343353
C         5.58640283993558    5.47169836377300   10.38924594710873
H         6.14813324300858    5.40494128508233   11.30674219014541
C         4.51943201052124    4.61954878059777   10.14494187093183
H         4.20963812075930    3.86849745915255   10.85745219407454
C         5.41401306865825    7.61244290896689    7.28114298439162
H         6.26838749069620    7.35531744421965    6.65541517785530
H         5.65197067969657    8.53237142574988    7.81154954046489
H         4.55992593636073    7.79056720436424    6.63346260148111

