50
CSD_code = PIKYAK | q = 1 | S = 0 | Stoichiometry = C20H22ClN6Pd(1+) | MND = 4
Pd        0.57541833401667    1.70111002554148   10.27144356415848
Cl        1.81340022867025    3.40283365006505    9.46621399473031
N        -1.34497369382621   -0.71834773449687   10.78802381935171
N         0.25030462259953   -0.34265757271001   12.19405753507846
N         1.84965496904012    1.24448613997521   11.82595380978827
N        -1.73752131429289    3.00560441701598    8.82859668385811
N        -0.34913998381737    1.99068996498976    7.52564874374846
N         1.14375973216857    0.34255799061617    8.07693650902478
C        -0.38282170055637    0.15836341282091   11.09332237030704
C        -0.33023131963329   -1.53727209956870   12.55640700353100
H         0.00459624830542   -2.15015101330141   13.36285967596526
C        -1.33053017538412   -1.76321315240192   11.67500926090936
H        -2.01910202494723   -2.58088184911235   11.61450165294210
C        -2.25115240125028   -0.59788655085827    9.67783603621822
H        -1.70192557457484   -0.23854499745882    8.80621024256775
H        -3.05474415247304    0.10329166272817    9.91228287004694
H        -2.68496720907233   -1.57103788009381    9.45672396506527
C         1.38434832178027    0.32338064469736   12.68796245055559
C         1.97955790505401    0.09727726045247   13.93309045757097
C         3.14067632375642    0.81906643552895   14.20725839269807
H         3.63705667777763    0.67014602227831   15.15411424483221
C         3.64763303316296    1.72197132188831   13.29141477487647
H         4.54861860188965    2.27648789187357   13.49463128938038
C         2.95240381507752    1.92685588378037   12.11181420413497
H         3.27531146218196    2.65450142182110   11.37552885944931
C         1.43466552945383   -0.82403989317106   14.97837419241299
H         1.87695777416737   -0.58020972943015   15.94142072893439
H         1.68903895731500   -1.86072239886542   14.75624766643920
H         0.35401439198071   -0.73174053119764   15.06655376937908
C        -0.64117624207870    2.24297759519285    8.82396379108180
C        -1.29195928670492    2.58537834326877    6.72208477253614
H        -1.30350236254814    2.48915248550615    5.65803264987943
C        -2.16173683439541    3.22111493037515    7.54141406529784
H        -3.02850643817437    3.80553718022197    7.31131956222446
C        -2.33085400158418    3.56404543572880   10.01485440021516
H        -1.71647790266357    3.26455030775790   10.87696567525207
H        -3.35319228850829    3.20378194401561   10.14239467483095
H        -2.34536594408305    4.65296826236135    9.95107983420333
C         0.81711932163798    1.27230179639075    7.17437426763476
C         1.58748344806789    1.55910634428813    6.04570508455306
C         2.72730655409633    0.77606435424901    5.86774693142271
H         3.36169050748439    0.96043330412491    5.01366108426866
C         3.05940614411697   -0.20550849946773    6.78206672432206
H         3.94267710638277   -0.80904971919839    6.65303153578079
C         2.23996435456574   -0.37638820933647    7.88648363874260
H         2.45433857355805   -1.11941198162803    8.64372109375400
C         1.29033279096324    2.66742731742126    5.08786399219676
H         0.57423988035401    2.34935374271292    4.33029131284985
H         2.20252982470941    2.95936043065700    4.57395784357599
H         0.89377541623362    3.53698589195020    5.60684829741127

