49
CSD_code = PILBAO | q = 0 | S = 0 | Stoichiometry = C26H16MoN4O2 | MND = 6
Mo        5.79480412517813    3.36234814206013    7.65249082062334
C         5.06785843846186    1.90830479907530    8.71057207314151
C         4.33640580804600    3.18812908875996    6.38569474487196
O         4.62908889447337    1.06053364810400    9.35527882908756
O         3.48432347529968    3.07876795860399    5.61838222426663
C         7.70517285610351    4.27541489795660    9.89635710331197
H         6.86023708361255    4.86124137980369   10.24128357541646
C         8.92180987146747    4.34505258315533   10.57166055716140
H         9.01479725535695    4.99412750450707   11.42866288032798
C         9.98736780887851    3.58137879579142   10.14381634024355
H        10.93915686640353    3.60862277066278   10.65279112098782
C         9.81218114166233    2.75718839793203    9.02308314408827
C         8.54292105590483    2.76225367338846    8.39971261660929
C         8.30352282272283    1.97276875157542    7.25008603631366
C         9.33196144954270    1.15705726104935    6.72854988004386
C        10.59675073584514    1.15767950557744    7.38464843059996
H        11.37486745122440    0.52684327185790    6.97984235988399
C        10.82932847699770    1.92471824062636    8.47905936380630
H        11.79507309010145    1.91892749991557    8.96336557561350
C         9.04926062746110    0.39793043937865    5.58513642737733
H         9.80288194574100   -0.24098082518604    5.15240238645218
C         7.78120177733197    0.50020441710781    5.03843034719646
H         7.51859089611282   -0.06492951328635    4.15747076138841
C         6.83335637400323    1.32876115263629    5.61657995441873
H         5.83950029535678    1.40488047735345    5.19464848808249
C         3.89602420441782    4.75427955224626    9.60613817936600
H         3.64699850855058    3.74693667984185    9.91399630661174
C         3.29334098500749    5.84416433978395   10.21288019778308
H         2.57604492885069    5.67701268732580   11.00152569064926
C         3.60696691371147    7.13164944342364    9.81128583230256
H         3.14955330068286    7.99488128464446   10.26842894019131
C         4.54744172532360    7.28575712780107    8.78396475122016
C         5.10922794594942    6.11765187486639    8.22273844442909
C         6.06822101207450    6.22240332610285    7.18753572617968
C         6.48593887963632    7.49022949027129    6.72089187792056
C         5.90157716463090    8.65031296619345    7.30075701288888
H         6.21822345413351    9.61637960565116    6.93508488404817
C         4.97221902441350    8.55048632374142    8.28386124958390
H         4.53227022595229    9.43725354227213    8.71675643959373
C         7.45813808412995    7.52137744211803    5.71097855791926
H         7.80612988847769    8.46690894416578    5.32297106354268
C         7.94923073758395    6.32444025183080    5.23358750567806
H         8.69940094505706    6.30372388279614    4.45819515784752
C         7.46771536683052    5.12352831464330    5.75032061927387
H         7.83860215550156    4.18060821910146    5.36373473322424
N         7.49930646499855    3.50740773638392    8.83855229242466
N         7.05430377498841    2.06591135657638    6.71050878235568
N         4.79173418269569    4.85133313633036    8.61763829813860
N         6.54836950311020    5.05263815348057    6.69956141551273

