64
CSD_code = PILCOD | q = 0 | S = 0 | Stoichiometry = C27H31CdCl2N3 | MND = 5
Cd        8.99104858994869    2.91609728391102    4.22367140972183
Cl        7.12251071494792    4.34537133420486    3.83441328851062
Cl        9.00266871249887    0.68930758941283    3.53322778630440
N         8.79923879581310    2.89274998260430    6.62879639408092
N         9.92151014486610    4.83617035904386    5.23438271375058
N        10.52954020912420    4.07661867850078    2.77661101360823
C         8.87744303772097    4.02168538134792    7.20873926061366
C         9.38562919542011    5.15332390952773    6.40601243411252
C         9.26000887142189    6.48536006132359    6.80509983690645
H         8.81749013272639    6.74597366631198    7.75225570263388
C         9.68791536557237    7.47668044954571    5.93845072429519
H         9.59551802014379    8.51639999264941    6.21572678875065
C        10.21214597225786    7.12970587196026    4.70480330674559
H        10.51539889636380    7.89442781733926    4.00895299914901
C        10.30450858457577    5.77526507071854    4.37912822749412
C        10.75986286292336    5.29485322537467    3.05778021933382
C         8.49994046732411    4.27578840447389    8.63772004787294
H         8.32194052183825    3.33124602576219    9.14792424119447
H         7.59119565502104    4.87437941818781    8.68634644569072
H         9.29494790587143    4.81685162643778    9.14815050226995
C        11.45847997669055    6.26326720858976    2.15036414274551
H        11.88550500962308    5.73389740147798    1.30093308996565
H        12.25133942824539    6.77952081605465    2.68908316680022
H        10.75511522536279    7.00725270837344    1.77891058070705
C         8.27569873025107    1.73492979704347    7.20798259821054
C         9.15051235944822    0.65660752100912    7.40735190922261
C         8.65466219972278   -0.51833019717153    7.94002836893732
H         9.32949945515766   -1.34610486184509    8.10431684901759
C         7.30759669598162   -0.66461422712326    8.24899820178488
C         6.45382997494471    0.39756280137411    7.99980722951149
H         5.39790339810892    0.28896681429304    8.20397414311680
C         6.90924641564486    1.60296843792162    7.48351343851013
C        10.59314415566525    0.79793905719431    7.03101698051567
H        11.15464903728941   -0.08508360388011    7.32387717655445
H        11.04247998227289    1.67532640634074    7.49707018721717
H        10.66412630282919    0.91416073837735    5.94647907872375
C         6.79088417640172   -1.96030055990956    8.79564689047921
H         5.81827029675746   -1.82666221013521    9.26287899087015
H         7.48170092972132   -2.37452792879485    9.52737570270638
H         6.68457175506919   -2.68527715215219    7.98854109686717
C         5.93502143178801    2.69972524689827    7.16887826503865
H         5.85316016120090    3.40497569808096    7.99719144599571
H         4.94803584661007    2.27829959115620    6.99388623971055
H         6.23661160701868    3.25039491301136    6.27747590567660
C        10.82179701100377    3.47713293156464    1.54893268829994
C        10.10166047621333    3.79318828550975    0.38962215056725
C        10.40863785409050    3.11671941646924   -0.78136435291774
H         9.85029363536419    3.35004099717972   -1.67706317252229
C        11.40027825150513    2.14828583982968   -0.83330411954667
C        12.07716362842348    1.83110629978689    0.33623074853511
H        12.83425173154160    1.06028394849611    0.32123607837516
C        11.79292236652044    2.46704132465623    1.53157998761329
C         8.97828694981624    4.78776824661478    0.41132331933550
H         8.45175201513201    4.76617944946833    1.36584382085655
H         8.26655316592144    4.55828842094289   -0.37808076560996
H         9.34553880023847    5.80137292465609    0.24404133706336
C        11.69760593602581    1.43670336221871   -2.11790524568894
H        10.92442287736351    0.69456010252617   -2.31811910542583
H        12.65549347123343    0.92478615863255   -2.06738586781582
H        11.71312900260551    2.13593061847865   -2.95227441113625
C        12.49088194924621    2.09182170309798    2.80231823053595
H        13.27044986940460    1.35937658190178    2.61054809731958
H        11.76084391866163    1.65441271601012    3.48822526121995
H        12.93332988149370    2.96295010713423    3.28652029905648

