79
CSD_code = PILHIB | q = 0 | S = 0 | Stoichiometry = C32H43Cl2PRu | MND = 9
Ru        3.78283867147234    5.19055808833829    4.15725832782137
Cl        4.80372624156435    4.35549970906302    2.21034882326335
Cl        5.63917231663569    6.61653752048212    4.36453112821746
P         2.70280821218426    6.64479853432944    2.74127426462325
C         1.58043399318467    1.00602713848610    4.93314392729132
C         2.11661719306543    2.01121225230261    3.90425722524358
C         3.11362181707135    1.35639200511779    2.93916112424753
C         2.42139045912326    0.49957899739112    1.88677185908140
C         2.69897635820451    3.17336511474812    4.67366806401005
C         1.86506530903555    4.23780766158355    5.04917200737898
C         2.32529350493371    5.26912881321599    5.90671205566443
C         3.62961284283082    5.21665455511689    6.41428217887448
C         4.47399868220920    4.12835073971156    6.07296197576870
C         4.02327996363410    3.14157887255025    5.19653915674328
C         3.38538206892973    7.06834022663343    1.06647205354151
C         4.77463106776381    7.72854591019129    1.09027663261940
C         5.25708538381019    7.86940775383241   -0.36214570641957
C         4.23949167638058    8.47410285474926   -1.32893562574703
C         2.88510743203374    7.76344592830175   -1.29753874786941
C         2.36911419139999    7.73876006240066    0.14550648595554
C         4.93178935464818    8.97400853938531    1.98608466152652
C         6.41432717958810    9.24686865260048    2.24656851405588
C         4.27064334992853   10.27168602232658    1.53207905010241
C         2.94053268093621    6.37020469409239   -1.92123961200026
C         1.19326309609230    5.72541561895308    2.28229098915897
C        -0.05007187456127    5.98713318766815    2.85123673609101
C        -1.14572489086584    5.20437420701328    2.52895356161113
C        -1.01279432231174    4.14743237020582    1.64436261757660
C         0.22958734796748    3.85973474451509    1.10096965296993
C         1.32897976963170    4.63252697356184    1.42598593181607
C         2.06810959342029    8.16470982789986    3.52233700083078
C         1.04031583773729    8.92549629880507    2.97172485805428
C         0.61810293962811   10.08132181976029    3.60516182962485
C         1.20941096370516   10.48613814981269    4.79042890948583
C         2.22881741872758    9.73017574838849    5.34618655226647
C         2.65563178512292    8.57613854011303    4.71586006939048
H         2.39279272375230    0.61970548010025    5.54641294628170
H         1.10000108076886    0.17148233007480    4.43057032672300
H         0.84962384635465    1.47829024185554    5.58772434172953
H         1.27146881026788    2.38874192235548    3.31526100134058
H         3.81562972063445    0.73281239499245    3.49715442103458
H         3.68166816686993    2.13993802746550    2.43259685020834
H         3.15702181026864    0.10436787638318    1.19094160686138
H         1.70503693325717    1.09383306478242    1.32458097033625
H         1.89553088102196   -0.33964418227072    2.33723776216690
H         0.82746568581427    4.23451614463465    4.73156322163747
H         1.64108853933756    6.04651415367200    6.22921096077028
H         3.97426076295180    5.96102588318807    7.12363868872112
H         5.46167246345216    4.05736910453895    6.51539215080951
H         4.66724480789382    2.30270604888699    4.96032536542183
H         3.56030269797697    6.05694788921157    0.67243608263576
H         5.43079378109036    6.98838549432735    1.56820751452169
H         5.52873971953428    6.87458683623455   -0.71996684805437
H         6.16464799636361    8.47261231947514   -0.38359711330566
H         4.64892216731216    8.42777794231782   -2.34122346673185
H         4.07943851974245    9.52537886618116   -1.09082923300394
H         2.17662502863452    8.35627089118226   -1.89084911271666
H         1.42260764926297    7.19051333509584    0.18069728435843
H         2.18048915836548    8.76369776557700    0.45896058021104
H         4.49231543426161    8.68604834632055    2.94861735839256
H         6.52055915379405   10.04608109058999    2.97629384731801
H         6.92830531040323    9.54900442300874    1.33691839983374
H         6.89551823132698    8.36022522252538    2.64719223431390
H         3.19822739782496   10.16603065272608    1.40035713837227
H         4.71309138551640   10.63352105435671    0.60773897182354
H         4.42894373943499   11.03237358918512    2.29528542909601
H         3.20744158072718    6.44593432933359   -2.97312027977546
H         1.96825860272440    5.88615320802156   -1.84956740911581
H         3.67485837330838    5.73734635797215   -1.43291188056282
H        -0.16362859860808    6.80130366292398    3.55315621151256
H        -2.10679004074184    5.42111993643465    2.97303264733782
H        -1.87070823292904    3.54259826241709    1.39007827010813
H         0.34098522552578    3.02623486707230    0.42269221612158
H         2.30422319212210    4.37808668934870    1.03495222092897
H         0.56274529527757    8.61241249551232    2.05539680558287
H        -0.17705548941335   10.66920374684054    3.16965742961864
H         0.87632021270038   11.39012816511092    5.27861843335592
H         2.69489835734320   10.04414474589177    6.26847844091876
H         3.47085030373250    7.99306119041244    5.12767868006639

