112
CSD_code = PILLUU | q = 0 | S = 0 | Stoichiometry = C53H51BN2O2P2Ru | MND = 6
Ru        5.64540736782891    8.43797016666856    3.74150867885116
P         6.49044753175868   10.03946370072695    2.28727766603191
P         4.65583965896381    6.91122657887706    5.17174091898126
O         8.18312819011129    7.47262170588280    2.31217373529094
O         7.34853986596210    5.76685710833657    3.55579022154764
N         3.69948362257170    8.59431805207357    2.67994754348874
N         4.89699607784960    9.96249910616137    4.93849148811144
B         7.09311291669431    6.98200905506192    2.98221377118553
H         5.89833742719015    7.26918798612596    2.61948409771885
H         6.88999591594497    8.50832253551050    4.61955255176940
C         2.97376809976078    8.09265895508303    1.69088417295468
H         3.40767457197508    7.29295601619735    1.10102281864954
C         1.68393339012815    8.55219879997136    1.38809010626644
H         1.16399029370309    8.08647650442641    0.56279466122196
C         1.07802709791914    9.56163308533227    2.10520108637895
H         0.08211366737728    9.89817282299339    1.85277903382460
C         1.79610144848951   10.12703459011151    3.16647098385871
C         3.10617130056683    9.56864377558706    3.37178267789566
C         3.68141422260504   10.22641749848047    4.45744152344326
C         2.73743332511702   11.20023039895363    4.93833013004277
C         3.18079239473061   11.94347466298564    6.04258082301526
H         2.56130111159998   12.70514495989771    6.49515638837706
C         4.43904423332794   11.67257312255891    6.53842461913586
H         4.81363502253787   12.22592432418226    7.38764281302885
C         5.27437137206917   10.69014042589560    5.98077420451304
H         6.25630988226928   10.50468921435700    6.39383977167674
C         1.59088867258332   11.12312173581733    4.13429441016002
H         0.70581729938390   11.72255126611107    4.23936088783215
C         9.23428043514760    6.50343655952292    2.36175380930869
C        10.55999022751281    7.21137756465886    2.62544267214697
H        10.78887610800600    7.84992876750146    1.77578068925677
H        11.35834371825829    6.48460921484364    2.74934340520227
H        10.49697569235122    7.83873181527376    3.50800869822738
C         9.28151784926031    5.83508922101177    0.98234177853494
H         9.43177740952809    6.60782628087026    0.23137417098770
H         8.33472921390093    5.34408814591307    0.77199492810552
H        10.09139330386371    5.11421476190514    0.92168043870180
C         8.75793871483229    5.52773301813793    3.49972005805685
C         9.32602023508572    5.89580726412839    4.87438014936579
H         8.81770869570315    5.29678205042335    5.62654785626271
H         9.12133618892877    6.94161199421131    5.08618361970195
H        10.39400856188231    5.70638064827488    4.92567407308591
C         9.00153800984509    4.04539098147482    3.22990387651508
H         8.63515483016132    3.47212719711373    4.07781799876728
H        10.06378509276220    3.85469568157234    3.10328286547376
H         8.46430497924717    3.71454044380499    2.34723839302349
C         4.76586840398581    5.15201481999804    4.68408332555393
C         4.45032272734390    4.82470898483374    3.36703294321170
H         4.13101450170609    5.60492968106935    2.68857002249634
C         4.56482789461801    3.52467437761148    2.91538044601367
H         4.31260009147067    3.28299323140436    1.89221402703562
C         5.01611315858625    2.53212816504406    3.77003475815481
H         5.11660437541459    1.51612437481272    3.41653022032114
C         5.35073677293768    2.85151675144979    5.07393509230173
H         5.71575811905130    2.08295061929787    5.74071268905450
C         5.22776320033463    4.15213830574537    5.53124904603774
H         5.50395288152114    4.38714723424132    6.54871234538438
C         5.09330208659955    6.81722872059222    6.94415815163148
C         4.23290182882279    6.21949822017195    7.86371342887106
H         3.28410801612530    5.82103231024809    7.52978207621425
C         4.59062438500897    6.13639217124564    9.19615155830544
H         3.91900189629036    5.67343285156018    9.90484865058461
C         5.80819220570226    6.64330419337612    9.62417790961777
H         6.08285779104348    6.57759131746289   10.66696202644498
C         6.66928817045310    7.23234849279469    8.71404403566546
H         7.61925650341183    7.62603382746813    9.04599398323486
C         6.31275086598166    7.31811712507187    7.37922789007707
H         6.96923777920497    7.77707182049088    6.65289406979724
C         2.85349955129249    7.18966920360753    5.32691698006620
C         2.44866428706229    8.22869555081873    6.16477307798288
H         3.18238802256325    8.72999389330798    6.78391663025788
C         1.12283106550649    8.61217489430360    6.21580380692136
H         0.82336777805014    9.42240721014329    6.86369253246382
C         0.18463500875084    7.96773142506030    5.42566323136885
H        -0.84962633444253    8.27697870306811    5.45278239376908
C         0.57642948890433    6.92785259232006    4.60171994155334
H        -0.15351914598357    6.41799321851078    3.98923549334056
C         1.90419844836634    6.53941872589481    4.54836541405418
H         2.19566828510260    5.72224750223965    3.90440008231924
C         7.13567621583170    9.47757097733629    0.66804602328721
C         8.34378264580486    9.90936704772410    0.13457166202231
H         8.94730450193275   10.62844247346018    0.66806574334102
C         8.79038695661052    9.40968639185277   -1.07676502676313
H         9.73435351989417    9.74949135636387   -1.47935567842807
C         8.04017781192247    8.47614577118965   -1.77055357235159
H         8.39411986095971    8.08673150019551   -2.71420589353792
C         6.83782603508372    8.03467647316996   -1.24242062818023
H         6.25147859523360    7.29915065396336   -1.77522508467425
C         6.39450675839704    8.52705452816051   -0.03007534546275
H         5.46904215760202    8.16144637012356    0.39422847695182
C         7.80974616520276   11.19449795698736    2.80109519305640
C         8.71486379764039   10.78784288349487    3.77291377320778
H         8.58319285066722    9.81126120564391    4.21768197905384
C         9.75018924689885   11.62062603945240    4.15931524957121
H        10.45031164120417   11.29894126998638    4.91714822191807
C         9.88833967046292   12.86927308212437    3.57642454550138
H        10.69286921160263   13.52358280723242    3.87938954353090
C         8.99276265223387   13.27950752271463    2.60125759842944
H         9.10187676023843   14.25159336058850    2.14200682756016
C         7.96012793499384   12.44732810987602    2.20984734248969
H         7.26728993579407   12.76768391502721    1.44335612193538
C         5.19225543545527   11.22773293034500    1.78432896019903
C         4.44274518185179   11.08688771589663    0.62264454055153
H         4.70060580022832   10.32782311775710   -0.10204498433444
C         3.36485213951541   11.92157288304548    0.38353629602284
H         2.78571654461743   11.79956032839261   -0.52062838643070
C         3.02280748006342   12.90076637918546    1.29913193293072
H         2.17335375132372   13.54148809518212    1.11502231548885
C         3.77117529546530   13.05493741557079    2.45471685795716
H         3.50941134927469   13.81700069011701    3.17372395236938
C         4.84496355711791   12.22124661430399    2.69910291752702
H         5.42961318070876   12.33975185321016    3.60311897927170

