52
CSD_code = PILNOQ | q = 0 | S = 0 | Stoichiometry = C20H20AuCl2N5O4 | MND = 4
C         6.66881284644418    3.07185080651851    3.76026676420486
C         5.08135839403293    6.01452465879860    3.28549812200190
C         6.37269333828940    7.06792160745761    4.59475207488201
C         7.12013815418049    7.99421780404450    5.32754461373075
H         7.05442136104506    9.03637112101575    5.06565375132534
C         7.89375789935917    7.53013389429725    6.35950810802465
H         8.47971672876048    8.21789110881666    6.94824525774729
C         7.92372090976104    6.15929233278161    6.67387300161831
H         8.51974026699560    5.80665003538396    7.49917801468688
C         7.19236159633707    5.26426219834835    5.94635398166217
H         7.16023378181139    4.20522104029135    6.14307334354710
C         6.56362011537996    1.57371369254491    3.57890885701332
H         7.54823961137224    1.17905240348245    3.85722780939700
C         6.36176484562877    1.28256929436113    2.07242751823196
H         6.57127981358149    0.22220475377885    1.90755791325746
C         4.94467831205542    1.60134416412951    1.60860251423892
H         4.83604967329988    1.28663353679476    0.56947153599860
H         4.77279347589681    2.67521864023676    1.66029472885515
C         3.90531320224679    0.87438909579318    2.45820843165132
H         2.89536854065444    1.16962720014493    2.13821034082220
C         4.07817605437156    1.20563822085972    3.93870279365847
H         3.37332970478403    0.60599505966547    4.51636567704779
C         5.48506000162254    0.88423872781641    4.40306133037561
H         5.62392742262568   -0.19680991801044    4.28980077308438
H         5.60521325726727    1.12584853165220    5.46179649941150
C         7.37104977206847    2.10726818845089    1.29417660454976
C         2.92126561879154   -1.29574460631562    2.47914840539322
H         2.63029255171148   -1.28781259509877    3.53456575437734
H         3.17709438273415   -2.31238231968244    2.18531072039487
H         2.07202036688399   -0.94462232749763    1.88168696441633
C         4.03612186799523    5.76706884510523    2.31292259282026
C         3.55080242434951    6.84655136834503    1.57391257081946
H         3.99595579533600    7.81720061121236    1.71507893813677
C         2.49826955817815    6.62984495111400    0.70341577308412
H         2.09243753764089    7.44361334747643    0.12131201577838
C         1.96774610153815    5.35261362205634    0.60283715237949
H         1.14026210798856    5.13898087702162   -0.05464363183496
C         2.51994766160332    4.34456325015780    1.37816282225164
H         2.13561199622521    3.33495646242141    1.34297983293463
O         7.73093776636537    3.65556052935714    3.60958052996094
O         8.60703650936939    1.62365918075808    1.42499016914350
H         9.24803139176591    2.20608220672767    0.98744523133823
O         7.11354357944573    3.08093117523860    0.63963833136109
O         4.06809650214858   -0.51979460596228    2.23582617218501
N         6.45915637917364    5.73673655174627    4.92527914071452
N         5.66779786665201    5.08110839137179    4.06791002618606
N         5.53016041509437    3.73890836976856    4.07903056443408
N         5.52650607353571    7.22393041927012    3.58069912801098
N         3.53121632032072    4.53760850709966    2.20774109972461
Au        3.59818493732524    3.15191767812581    4.35376746709496
Cl        1.48595389841589    2.45331946253561    4.48114960000729
Cl        3.14143130953827    5.29273244819408    5.31799226785939

