44
CSD_code = PILTIP | q = 0 | S = 0 | Stoichiometry = C17H17BrMoN2O6 | MND = 6
Mo        2.74279586417436    1.87740014957610    8.98273957843286
Br        5.42084240715979   -5.11608731621121    9.19810320884618
N         2.32375810247419    0.42218367028321   10.54729615197325
N         1.70187525553158    0.95101237934024   11.62739601209482
O         3.14221403403638    0.31589128569681    8.08475104834100
O         1.64538222904909    2.76474422368149   10.27916529175593
O        -1.04377160702542    5.17978966326755   15.48787137507893
O         0.38042810151278    0.78592316680621    8.44584216291723
H         0.47909690323310    1.12947177243792    7.54404059802265
O         2.17687967065237    2.73734776373576    7.69956286021497
O         4.20307092287026    2.32397943163565    9.59868422678389
C         3.48528450860181   -1.46087697048718    9.62645381485585
C         3.65454444875795   -0.86119535525336    8.34934010628622
C         4.36439789688608   -1.56060847516453    7.35976186846131
H         4.49113077940709   -1.08634519322839    6.39719120292077
C         4.88840173426146   -2.80854662297177    7.61043261397497
H         5.43514524885383   -3.33795215065344    6.84514927806243
C         4.70609429647811   -3.38887009359138    8.86302163098417
C         4.01820502887314   -2.73614955280200    9.85949513762422
H         3.88973279128141   -3.19719576612714   10.82759262010911
C         2.78455784933092   -0.77903653221301   10.66959461748107
H         2.65153538772424   -1.28517965830319   11.62605707381567
C         1.39942236157900    2.20543114514502   11.42278942243609
C         0.76012118918179    2.98482295744044   12.48001864609535
C         0.52237793979857    4.34354650851773   12.27562727707139
H         0.82557012119738    4.78868859965625   11.33793595669028
C        -0.07633868846304    5.11162586084733   13.25324346736521
H        -0.24363546514904    6.16076791512891   13.06875066375661
C        -0.45183965045450    4.52741315751437   14.46322205559568
C        -0.21226645185754    3.16182012155937   14.66882885273217
H        -0.50884365088423    2.73281428448842   15.61272617912660
C         0.38730335528389    2.40131381733665   13.69507948082144
H         0.57913764861470    1.35195936465643   13.84779002536951
C        -1.30356017451184    6.55981677071836   15.36289328968493
H        -0.38090021727189    7.12955592720682   15.21802837407991
H        -1.76655288443102    6.85692145341654   16.30231196242604
H        -1.99359853758826    6.76459364796955   14.53874141053720
C        -1.05564562733973    2.76252127463846    8.60624102078401
H        -0.17511778262886    3.33742632639092    8.89822457150612
H        -1.92736971830512    3.15191850577110    9.12531801690831
H        -1.20304744336684    2.88126855824223    7.53430469973947
C        -0.84898383516903    1.29673644767811    8.95387397693696
H        -0.81635747289153    1.15418887748792   10.03909450856771
H        -1.67017686939768    0.68764865879809    8.54731366275129

