61
CSD_code = PILVUE | q = 0 | S = 0 | Stoichiometry = C22H22N12O4Zn | MND = 4
Zn        6.24915229240551    0.85073961435160    3.72014913260528
O         5.33747179470422   -0.86118085806609    4.36158980811377
O         4.34863661871097    0.53934203241800    3.01868868346609
O         6.39134567904768    2.91276474242170    3.52052021810267
O         5.59424801087357    2.02134927352171    5.33744845643847
N         8.08369638802384    0.77889039239623    4.74177689435759
N         8.90837688839185    1.58022655392822    6.63922975443561
H         8.92578160392745    1.77248215770368    7.63320638207576
N         6.39050123942592    0.73343352797341    7.78878207926038
N         7.02786029589383    1.47856609986824    8.70012506351133
N         6.15265496491170    2.15708292074317    9.31841860080015
N         4.93656455709976    1.90430943179732    8.85923045629906
N         7.01167799577928    0.21736639866393    1.91677176691591
N         7.56878190515156    0.17661996010189   -0.22324736068134
H         7.69302486773508    0.51941853012379   -1.16407483259071
N         7.32599677442351    3.13018917293616    0.30276900513263
N         8.08242940099195    3.09637628581897   -0.80209197095483
N         8.95837815201721    4.00490444985842   -0.68979614773255
N         8.83353024982492    4.65703498276147    0.45842396311358
C         5.07945005270006    1.02493679883485    7.90042549946402
H         4.31026680687128    0.60153263180119    7.29438973401141
C         7.09587459747493   -0.10197420590114    6.85726011095857
H         6.38070340755178   -0.58661423361986    6.19125282089171
H         7.66781081677252   -0.85344938950614    7.41578161929323
C         8.02427174975129    0.74340560211050    6.05042413684260
C         9.06455430040724    1.69748027263097    4.43487872780351
C         9.55548433669890    2.13022040451769    3.20933955302089
H         9.18261752609544    1.70919259330864    2.29121483470339
C        10.52475041399948    3.11071770773916    3.21755972662988
H        10.90974583131743    3.48488869882898    2.28123070169151
C        11.01549946808623    3.64615709566810    4.41097516783902
H        11.76913545162863    4.41707716236257    4.36658279902376
C        10.56056812663687    3.21293842245909    5.63982109202309
H        10.94113865027096    3.62090394185092    6.56311098566361
C         9.58125459911419    2.23185238675249    5.63450525261411
C         7.82094896623324    4.11296572689896    1.08425428363178
H         7.43731986858836    4.35412380292300    2.05139141224021
C         6.28609501062247    2.16636247133741    0.54780709807802
H         5.62212521136363    2.13099564145020   -0.32164687431808
H         5.73333776461822    2.45105458371109    1.44305594889670
C         6.92660255245614    0.83862754440500    0.76960846231018
C         8.10022475378632   -0.96587094988319    0.32493940382491
C         8.84509707023952   -2.00978862079017   -0.20234725414386
H         9.12963051205151   -2.03053334015918   -1.24256043596142
C         9.20255210892771   -3.01845707180860    0.66914986009328
H         9.78261850863226   -3.85112058709610    0.30151670133634
C         8.83023474246629   -2.99400348366717    2.01656317248648
H         9.13164668425865   -3.81256654761779    2.65216587151035
C         8.09149028069656   -1.95848792827581    2.54860391709972
H         7.78635893419471   -1.92838468163288    3.58099816898891
C         7.72768532223684   -0.93211947919878    1.68598918959213
C         4.32438757731745   -0.49336714015386    3.71821376135211
C         3.05881196171231   -1.31749048206908    3.79205062268961
H         3.24028027796165   -2.23477605852298    4.34325942162868
H         2.28844811781544   -0.73248055940982    4.28879105268920
H         2.71688621255325   -1.54196793600497    2.78549364926735
C         5.89337329836376    3.02805311478840    4.66685186772709
C         5.67354142752673    4.40808010902700    5.24367905765787
H         6.56419315032171    5.01371151537427    5.09483592486686
H         4.84506641710700    4.87823013965559    4.71861651055986
H         5.43370745325723    4.33582865723842    6.30034649107920

