97
CSD_code = PILWUC | q = 0 | S = 0 | Stoichiometry = C56H36N4Ni | MND = 4
Ni        3.52774610382054    4.87387231028811   -2.89862123486968
N         1.86998206580979    3.83700936586933   -2.96481697332812
N         2.91237520130667    5.76852099944479   -1.28429106020311
N         5.17993309929686    5.90565153593513   -2.83183048385324
N         4.15674938955074    3.98462470285677   -4.51076019658298
C         1.60651508123557    2.74625005952068   -3.74510224171615
C         0.73063445808199    4.05124688490030   -2.24092600751773
C         1.65224616921083    5.74316587604068   -0.76188150715896
C         3.65674545716535    6.51196153666862   -0.40819843454641
C         5.65384048452792    6.63900947135005   -1.78061164470216
C         6.10543097852719    6.04751461582270   -3.82715839025552
C         5.20013936773036    4.35763790459155   -5.31480714187233
C         3.61448865596055    2.88254364255073   -5.10482755367508
C         0.28505383674367    2.25178799407110   -3.48815535704694
C        -0.27600133060073    3.09211670871136   -2.59237970045205
C         1.60087908982405    6.48524662103273    0.46258644862648
C         2.85379085681017    6.93049982363290    0.70311298853876
C         6.90790807689161    7.24090653059342   -2.11713681309219
C         7.17340925915326    6.89812614266203   -3.39801144476665
C         5.29064585000671    3.49171593381655   -6.45363035018973
C         4.33007428157023    2.55357436974069   -6.30165490004443
C         0.57823440626347    4.99056813418303   -1.22740817769387
C         4.98140362885797    6.89057918569179   -0.58742517488138
C         6.10709676740333    5.37533975733643   -5.04673049225092
C         2.44248606321391    2.23245389839583   -4.72997293752118
C        -0.73445342089366    5.15666470488962   -0.58514114820626
C        -1.36870049881001    4.23343760005675    0.13382155727979
C        -2.76788906895861    4.46722566921839    0.61741393167080
C        -3.24028693062295    5.84575497145302    0.13670935437939
C        -2.81130644199627    6.01718353579901   -1.29295557585328
C        -1.46344925372929    6.47032071609781   -0.81777729585987
C        -2.16134905005805    6.88828574135569    0.49157550616257
C        -3.37179234187484    5.81089948051452   -2.48067408384780
C        -3.80936795313279    5.39910805624012   -3.59149066628336
C         5.67058076352327    7.66379314806289    0.45997192922256
C         6.70308733762760    7.20729964842555    1.16373350790874
C         7.33976738689942    8.04942526214330    2.22727296724877
C         6.64630380884771    9.41783911028185    2.27600168623264
C         5.16396740175039    9.19684766760222    2.24039451286604
C         5.22467477214208    9.08866877984078    0.74666983683873
C         6.49791609376251    9.95881530051834    0.83892055423933
C         4.19428913778545    9.15473514322023    3.14876662266010
C         3.29578956871469    8.93109468151882    4.00929652874253
C         7.16298289495322    5.69217038965857   -6.02371665394420
C         7.24426828759165    6.84429236619219   -6.68378907144707
C         8.34082151027929    7.08467892129871   -7.67647326079152
C         9.27075817352071    5.86402047040631   -7.71301680175088
C         8.42428276018052    4.62799115630742   -7.77070925946740
C         8.26569336173478    4.67781249596005   -6.28117076218534
C         9.60751104174814    5.44336388784115   -6.26746957463562
C         8.01574544621162    3.80688743590985   -8.73299580351481
C         7.47617008559720    3.13289956941957   -9.65624296883242
C         2.05670309614057    1.00273473103024   -5.43866722073651
C         0.99346153632952    0.86184153704976   -6.22678411072843
C         0.62280959453131   -0.48090123739195   -6.77998208971711
C         1.62715208938462   -1.52557312259834   -6.27550384075190
C         1.88392972375562   -1.26537838050001   -4.81829472275219
C         2.90528284492840   -0.23555880209435   -5.19804948655573
C         3.05421291272008   -0.99986864652123   -6.52846785442051
C         0.76133594215521   -1.97249972380839   -2.60470067315446
C         1.38594245969141   -1.72221647662276   -3.67342758263481
H        -0.15108123987251    1.38725960814071   -3.94566077060436
H        -1.26929633500791    3.06421615882939   -2.19297939539755
H         0.72891242017059    6.60793625012838    1.07215341500506
H         3.19775682605848    7.48927274173381    1.54989943596802
H         7.48913609007486    7.85875762135503   -1.46243398931845
H         8.01909627262410    7.17307452007508   -3.99583689566729
H         5.99194925647311    3.58509560216971   -7.25804593257747
H         4.09528254698315    1.73817161078525   -6.95506109241862
H        -0.90343283975377    3.29173426020404    0.38195743188253
H        -3.42404038558467    3.69001518843511    0.21403193170564
H        -2.81795115396836    4.40573762903281    1.70872253512824
H        -4.28240386983981    6.03336809723889    0.39229964553270
H        -0.88212997349008    7.18272195968018   -1.39768496702814
H        -2.53403735436175    7.90928451367071    0.45465829485639
H        -1.61430693066384    6.72055031932815    1.41726223460902
H         7.10139785523363    6.21727978598405    1.00323903105408
H         7.24709113433612    7.55273038318356    3.19768534716397
H         8.40770178341638    8.17577566357645    2.02373511504559
H         7.05714524978347   10.05535224930837    3.05808102155440
H         4.37832041708076    9.39990622864861    0.13913918162524
H         6.27711342374104   11.02334438755285    0.81402016923902
H         7.30069742413030    9.72463874135416    0.14289229037728
H         6.51947878115784    7.63034135150398   -6.53773382106643
H         7.91163143466681    7.25293317241913   -8.66868355933329
H         8.90732683118435    7.98165660618100   -7.40738799699013
H        10.06866711085846    5.98151495836356   -8.44538932135192
H         8.14062804569443    3.75982005440753   -5.71209351792062
H        10.46595159791007    4.77777552848854   -6.21514121526021
H         9.70585225754152    6.24247227711336   -5.53571364167214
H         0.36468820099854    1.70057451823549   -6.48375916440925
H        -0.38472886882587   -0.74433780185713   -6.44419529630165
H         0.60991820638501   -0.46110697687938   -7.87392077221117
H         1.35702867926307   -2.53503920440488   -6.58304829052102
H         3.76412840731390   -0.04525017342260   -4.55933562108272
H         3.80704848979076   -1.78279836381660   -6.47436878469301
H         3.19610783763262   -0.40269926116476   -7.42711224124439

