65
CSD_code = PILYIT | q = 0 | S = 0 | Stoichiometry = C24H32N2NiO6 | MND = 6
C        13.40330484798873    5.49298576374227    1.31011424745998
C        13.19844557876439    5.50229283615469   -0.22125898892390
C        12.78022689921820    3.98502052532590   -2.05294221404177
C        14.15401143705751    3.26593421019485   -2.12811127745453
C        12.28906653209008   -0.23223452387360   -0.06007415571183
C        13.76574010017625   -0.26040537848158    0.41239693670577
C        13.45221517163432    0.90754694356401    2.56288121934730
C        12.10650761911058    1.68852444069415    2.56832883247453
C        11.00869103586035    4.40886512771853   -0.47743545648411
C        15.52676101987952    1.12655970771057    1.32659590576157
C        14.06125364697440    6.76787724508418    1.78492513856873
C        13.33292144250120    7.74362045992900    2.45174542666021
C        13.95051940835880    8.90743066214354    2.87515616999171
C        15.30141182235793    9.10104850301258    2.64187802108408
C        16.03488864988670    8.12617884796910    1.98614227472600
C        15.41801763569528    6.96452869479012    1.55885202487493
C        11.94931755324869   -1.48288637111591   -0.83775403270403
C        11.03631568408365   -2.40005295982019   -0.33528318852329
C        10.72337130944640   -3.54276876359905   -1.05060197170416
C        11.31691541751125   -3.77786119164894   -2.27883797398960
C        12.22459006673320   -2.86544761012598   -2.78963460801343
C        12.53966775734608   -1.72446456873174   -2.07384902945027
C        12.55635073719326    6.81315457140020   -0.67652874683596
C        14.07406807319561   -1.59907621320224    1.09242615194644
H        14.13715681716155    4.17854557371716    2.54827805507632
H        12.51471244223064    0.83826104895940   -1.66883294943036
H        12.42830934668396    5.37312268550898    1.80089453569748
H        14.19888716098691    5.42019759954624   -0.66195304720703
H        11.62884288256573   -0.14501382657603    0.80940658283892
H        14.39376567813297   -0.17337278082901   -0.48313610378807
H        12.27971299063225    7.59209342934118    2.64054638192987
H        13.37653843997143    9.66248454258666    3.39153083535747
H        15.78263171306238   10.00867080689350    2.97438038838090
H        17.08976860000094    8.27181814283133    1.80679056759956
H        15.98292672837729    6.19573346664513    1.05340144283288
H        10.56628753651660   -2.21462586812572    0.61932225992401
H        10.01185676843760   -4.24892822634704   -0.64918193299978
H        11.07200871089683   -4.66815391127508   -2.83828982444533
H        12.69015823740106   -3.04213973008914   -3.74764776481645
H        13.25740324278707   -1.02696056253264   -2.48482954978237
H        12.03556233366044    3.28429075226943   -2.44105664725825
H        12.77400665286111    4.87826624925907   -2.68771260688391
H        13.30106202318257   -0.10687105200754    2.93578836692261
H        14.10242636663120    1.42659107343555    3.27274954687200
H        10.77265465355769    4.71718138221372    0.53772878561328
H        10.58052941685260    5.12166597083460   -1.18933266215325
H        10.55912809243437    3.42916636194296   -0.63548123244905
H        15.99642519910915    0.32953976377671    1.91421689812174
H        15.73414383852622    2.08603943320295    1.79922973871675
H        15.96319574279030    1.14764001302425    0.32948949636343
H        11.65478685404421    7.03043330701356   -0.11011123696458
H        13.25809681142288    7.62845475134151   -0.52386346587070
H        12.30956987521551    6.77854164228595   -1.73435591502099
H        15.02492372054793   -1.56513396948731    1.61684443950722
H        13.29301029231403   -1.88495751757283    1.79231021007801
H        14.13595436366850   -2.37583922780885    0.33489386918647
N        12.46029976444705    4.29007388308646   -0.64615371266272
N        14.07436592164002    0.93910160522652    1.22279752409657
O        14.23200329912020    4.37040331487111    1.60869352126370
O        12.03078839011460    0.92790604220009   -0.83516795765766
O        14.43912487719668    2.58815478745837   -1.08471266061984
O        12.01724439800110    2.59634528513859    1.67872362545174
O        14.83744004527824    3.33338145625654   -3.13009399791498
O        11.26722110918123    1.44507621051338    3.41323033157098
Ni       13.24718921604090    2.62384513243331    0.31363515875937

