71
CSD_code = PIMDOH | q = 0 | S = 0 | Stoichiometry = C32H30N4O4Zn | MND = 4
C         2.54579347317092    4.83032140707489    1.43451370342120
C         3.41449213333723    3.70816892078501    1.38005189075327
H         3.45674451371479    3.08195824920064    2.25843452197985
C         4.16143233335037    3.42458441877862    0.27140429576288
H         4.81071711587393    2.56081782197688    0.26516556798538
C         4.09472517434905    4.24461222219295   -0.86307738753269
H         4.68845398655830    4.01181606876382   -1.73354488512360
C         3.27107654099145    5.33450604800044   -0.85212227174136
H         3.20952212828813    5.97455147509556   -1.72200536316469
C         2.48091697892908    5.66475913141578    0.27251708635938
C         1.65699115650932    6.80980969499092    0.17290452752788
H         1.70149889283774    7.33716862355041   -0.78547743481297
C         0.09876810581699    8.41652124070771    0.79950771567772
C        -0.58443856594326    8.53437755015216   -0.41309156016878
H        -0.52408879346043    7.73817133441042   -1.14070325831008
C        -1.37502578126022    9.63429943543536   -0.66162550962606
H        -1.91153967597360    9.72315074604106   -1.59252315562126
C        -1.51097345016391   10.65570668068572    0.28221253937223
C        -0.83160270373708   10.52676239348267    1.49475067065416
H        -0.90458030412606   11.29706194267772    2.24637243041644
C        -0.04305807712858    9.42453477255785    1.75031190773184
H         0.49390043846191    9.34616714521181    2.68402721424031
C        -2.71060586702036   12.76683107211340    1.09898570140040
H        -1.83496475150305   13.34005414612433    1.40155485134743
H        -3.08617075946135   12.21831681654492    1.96041321326492
H        -3.47349159702797   13.45806423742068    0.74953363722195
C        -2.35044273298340   11.82083055220139   -0.00832334595311
C        -3.83900384415401   13.04815917083917   -2.89925715208646
H        -2.93658689409923   13.08086224823073   -3.51538201765406
H        -4.43300512668163   13.94552939254846   -3.06016918507034
H        -4.42250212344230   12.16142833020845   -3.16138486282005
C        -1.74719162969249    5.79965567317272    4.13970583414315
C        -2.99353542329673    5.11996556536136    4.19256177913811
H        -3.31070765757279    4.61509889779136    3.29269932321707
C        -3.75822077478349    5.09723864980042    5.32449926702826
H        -4.70026611809083    4.56781570085700    5.32848221085478
C        -3.33298433101506    5.75453707544031    6.48760711167218
H        -3.94393887348944    5.72843351385029    7.37667926322019
C        -2.14179290264166    6.42236292347947    6.47961264813352
H        -1.80205065804267    6.93281915776357    7.37084256266060
C        -1.31938450484084    6.47289790714051    5.33023375678717
C        -0.10915385989469    7.19460110683048    5.43028179346349
H         0.07495428977092    7.67101590026488    6.39844939587552
C         1.89115137225045    8.16564603743510    4.72953201244381
C         3.12783729110387    7.81256064399847    4.19287102557545
H         3.21698776086493    6.87504417429078    3.66399124855540
C         4.22525363415448    8.63140299897557    4.35269025735217
H         5.16743285298476    8.31996594669770    3.93052092075724
C         4.12252199969485    9.84195443977567    5.04186298123068
C         2.87466894322461   10.19944184628993    5.56080321821482
H         2.78760680972224   11.14084167944911    6.07891181555946
C         1.77744067253334    9.38084547872390    5.41182905595348
H         0.81618281891295    9.69712915657242    5.79119621786251
C         5.27450346023614   10.73005776793993    5.21524243351822
C         6.61345959380690   10.31741544532781    4.67901601783723
H         6.56531233977595   10.19689278056572    3.59787877835177
H         6.92331916862864    9.37293472405167    5.12305631691791
H         7.34978484627067   11.08063533882920    4.91708687020361
C         5.70792786402929   13.84224556449300    6.70294464743986
H         4.93791743524425   14.37956015735482    6.14299611818476
H         6.59848248904262   14.46008026605679    6.79838960749244
H         5.32178173533106   13.58698730446634    7.69336511955607
N         0.89497614652888    7.30690670143018    1.09973266767292
N        -2.72179897501485   11.95525260429178   -1.22007444374018
N         0.79644209496853    7.32852078862227    4.50720300538707
N         5.05161881074498   11.82542929531787    5.82866881743698
O         1.88278418639247    5.04370150140535    2.51492838332416
O        -1.08412193779422    5.78634611198026    3.04011321181823
O         6.12492316701826   12.68743884796411    6.00923779393097
O        -3.51392055158131   13.05378967080393   -1.52691936015506
Zn        0.63594449045606    6.36432736572353    2.80029622974115

