63
CSD_code = PIMKUU | q = 0 | S = 0 | Stoichiometry = C19H37Br2FeNOP2 | MND = 6
Fe        5.23688352785053    9.73467554585115   14.73460739409532
Br        4.27416347918931   11.00494601939362   13.01521819798924
Br        6.29347469659131    8.52995292033863   16.45901625495380
P         6.13003853452747    8.36248331296060   13.25427044898854
P         4.65660605495597   11.28720434933608   16.19082642949234
N         7.00138911112245   10.83325512405685   14.54438090857563
H         7.60415664361324   10.42045511569308   15.26485314458980
O         2.83478364637871    8.14621532788058   14.99323700993483
C         7.81020027052757    9.12218791398922   13.02133036130257
H         8.47304246615151    8.67757667657873   13.77175886288392
H         8.21583369132053    8.91710794118414   12.02996829954571
C         7.67715983185620   10.62130274113788   13.26112498284346
H         7.07018441680672   11.07681030866113   12.47268212965595
H         8.66383612553063   11.10547374123102   13.25531669817960
C         6.85349005355677   12.25168215826535   14.88514855955279
H         7.83155781647724   12.75287532428441   14.89781016604611
H         6.23782134691211   12.72808804396374   14.11630871134211
C         6.17301428463128   12.36084813084827   16.24549244890406
H         5.91884413832182   13.39682562103093   16.47542340000700
H         6.83402140386396   11.97110502212609   17.02723753394969
C         6.56757672130219    6.63107317491505   13.64931716741800
H         5.66292510298097    6.02350064094283   13.63998186758876
H         7.28059523292147    6.25061093078423   12.91894929157620
H         7.00543987913901    6.58092874171485   14.64438144357059
C         5.45596157895710    8.22066380491674   11.52897453594822
H         5.45390351530017    9.24232759541556   11.12724697141879
C         6.25766606832389    7.32906631012268   10.58300339896790
H         7.30479574993344    7.63872049596100   10.53773355308689
H         6.22257846317834    6.29226918221525   10.92325086790421
C         5.64444121170813    7.40041823080002    9.18549177885436
H         6.22484690358076    6.78028937093033    8.49840132047455
H         5.68189627278188    8.43010445747642    8.82280867672231
C         4.19468124800868    6.92652696037353    9.21930804645692
H         4.16495999135475    5.87738267317674    9.52457371771509
H         3.75813638430901    6.99573581975675    8.22121561142776
C         3.38211480104213    7.76475544747358   10.20125006991518
H         2.35725599201215    7.39249965673301   10.25048770802232
H         3.34620592481575    8.80061179027432    9.85784733814562
C         4.00918878034173    7.72778632161271   11.59136806438287
H         3.98247372942306    6.70562879250075   11.97970102201027
H         3.42636678560725    8.35817961927767   12.26503811028788
C         3.33793713512182   12.49785571391418   15.81834634522676
H         3.55210396358258   12.98617134828233   14.86943549741702
H         2.38948741290430   11.96950631015794   15.72116590762099
H         3.27190927093626   13.24507221832638   16.60727355620720
C         4.38600039901845   10.89177502486837   17.98330064296188
H         5.29174528023921   10.35883446075352   18.30050719182454
C         3.20256713551359    9.93496857377101   18.12102050718491
H         3.35021714904173    9.07013177823704   17.47050429225439
H         2.28121234331768   10.43693702062985   17.81202466619243
C         3.07467730875841    9.46443604809219   19.56649974518701
H         3.96663614014597    8.89340289755430   19.83300695079295
H         2.21152297789227    8.80334359241728   19.66419668777185
C         2.93049746510345   10.65451005016686   20.51026261554054
H         2.87652527068108   10.30436374674946   21.54277065456338
H         2.00061381784863   11.18434580724171   20.28829483569710
C         4.10781099374943   11.61175915622464   20.34830392097119
H         5.03293218967507   11.09901301892610   20.62088775828763
H         3.98821936103069   12.46788021379429   21.01616672253814
C         4.20041370526144   12.09673823971638   18.90236374949179
H         3.27609121632321   12.62398507217296   18.65801866190442
H         5.03449117168288   12.79517560528058   18.79811478806056
C         3.78147641496572    8.78494274655118   14.90029179756012

