79
CSD_code = PIMMAB | q = 0 | S = 0 | Stoichiometry = C28H20F22N6O2Zn | MND = 4
Zn        2.37894109910289    4.12027871186217   -0.00011953390999
O         3.41002839823085    3.04763539239896    1.10921127699150
C         3.13577762043375    1.86864723131424    1.67931279312358
N         4.09250763938320    1.58170822302813    2.81212106066956
N         4.97251553293448    0.63096653324644    2.46964078546319
N         2.28820574561555    5.91081126196896    1.12164527038435
C         3.35302199984394    0.61439711671161    0.79162158470536
H         2.51760764216131   -0.08374383930675    0.85322598310718
H         3.50373914973227    0.90441679915694   -0.24768058013530
C         4.60090409570427    0.04367636823400    1.40250499169757
C         1.71195110933064    1.91191668183747    2.26789376379138
C         5.35556021747466   -1.08919517436492    0.79497876604978
C         4.54485481711073    2.61297092742067    3.65056365371793
C         5.58996644559021    3.45732617717881    3.27116481073309
C         6.01814892949385    4.48917377417698    4.09993658920554
C         5.40537654164665    4.68624371951153    5.33378024822874
C         4.37183988725035    3.84363970830094    5.73540570878066
C         3.95284640561582    2.81341311082078    4.89853718953787
C         3.09229550672090    6.78808254923513    0.26208116503253
H         3.39634160254114    7.68912035267320    0.81150532919721
H         2.46647120391792    7.09444954511079   -0.57676858226303
C         2.87625294506305    5.85706793093736    2.46053467991708
H         2.93048680728424    6.85993369423570    2.89938806660028
H         3.87312612865391    5.42997071377051    2.41402109034996
H         2.26894992613314    5.22445199675203    3.10208386501095
C         0.92864996784032    6.44810149725139    1.24114312908810
H         0.94682098037228    7.46538930930398    1.64528856191843
H         0.34803430471475    5.81439222503244    1.90819518531224
H         0.44833987580660    6.45314334273182    0.26723769537568
F         6.43594640594671   -1.44111200594419    1.48657891316001
F         5.76748755573605   -0.78294563303129   -0.45160848784696
F         4.59069618098672   -2.18796411676801    0.66728551517570
F         0.82869491047335    2.21165844664704    1.28647166594357
F         1.29591804080662    0.78761829354506    2.83922014026069
F         1.57474617244051    2.90105929599982    3.16474129618299
F         6.17749782865955    3.29657029843197    2.08667845362999
F         6.99299144198661    5.30937133950835    3.69959380566009
F         5.80144808094838    5.68202596516624    6.12250337433246
F         3.79085341210854    4.02794101942101    6.91857865011248
F         2.97868059199705    2.00610694425046    5.30117727050905
N         3.97504989202883    4.93642596734030   -1.12215674316091
C         4.33298057156693    6.07160076082622   -0.26292381896589
H         4.96127696334380    6.78523121840587   -0.81261022845523
H         4.91129905925457    5.68295671132325    0.57593794561856
C         3.63449703631939    5.41850988497195   -2.46116366481473
H         4.47592011990270    5.96674210001802   -2.90016692214981
H         2.76622428735006    6.06835147009993   -2.41480962265604
H         3.39022734110463    4.57612489808072   -3.10250860153365
C         5.11997786785039    4.02743336592406   -1.24144608806222
H         5.99194182648698    4.55153354912799   -1.64584167939081
H         4.86129172106198    3.20756268676654   -1.90819495177192
H         5.36450997059970    3.61428310684850   -0.26741635122196
O         0.93440198882435    4.47704850841524   -1.10937335685574
C         0.05042079333424    3.65001818908659   -1.67931983715274
N        -0.67663098573811    4.33500970244841   -2.81208535706380
N        -1.94004882375227    4.62148486421935   -2.46954280074373
C        -1.14425563183142    3.21101263559625   -0.79142605717961
H        -1.33096678395366    2.13840546733845   -0.85274829327882
H        -0.96839380221419    3.48682276621436    0.24779918286796
C        -2.26266210580441    4.00602609995122   -1.40234636428996
C         0.79974656763865    2.43859190648252   -2.26802890070692
C        -3.62108203680706    4.09288885989627   -0.79476852251653
C        -0.00988984071626    5.24272525589329   -3.65033166504563
C         0.19863073284901    6.56989953593069   -3.27050994779747
C         0.87803029893598    7.45699018464026   -4.09900197719398
C         1.35509402532126    7.02530112412626   -5.33299828943947
C         1.14225595103328    5.70904816923992   -5.73506412623809
C         0.45966901356434    4.83071758925415   -4.89846604873089
F        -4.46619267912948    4.85245992022543   -1.48630772854918
F        -3.56186035153170    4.60271015109854    0.45183299036956
F        -4.19001195208850    2.88101450449799   -0.66710549921933
F         1.50168988874263    1.82395184840245   -1.28684519920748
F         0.03396566700873    1.51580940083326   -2.83864616454558
F         1.72435744158914    2.81427585978376   -3.16552084939957
F        -0.23443537425312    6.99792297326978   -2.08590890968072
F         1.10077147733920    8.71122407415021   -3.69825436185492
F         2.01933038782274    7.86652849609323   -6.12146206817036
F         1.59235260366979    5.29849503836147   -6.91839197327384
F         0.24769372548256    3.58354542706152   -5.30155229333858

