54
CSD_code = PIMPUZ | q = 0 | S = 0 | Stoichiometry = C25H18BrN4O3ReS2 | MND = 6
C         5.92061052393023    4.39141190049706    2.86996878206880
H         4.94781954808759    4.80199587084084    3.14990519811401
H         6.07545691124313    3.48419232925592    3.44571591938732
H         5.90515850448236    4.12846014805333    1.80956328757432
Re        9.11245381468025    7.67423999391752    2.24261918672846
S        12.00558567507010    2.30538282106139    6.62779574640436
S         7.33976795277110    9.20176097345128    1.19582365543131
N        11.38807994741111    4.48698165657836    7.88469475653960
N         7.10440012597243    6.53229088902368    2.60791553366700
N         6.09570262932460    6.92762825345803    1.78325082968927
H         5.36244809920604    6.25272356063472    1.58311602263168
N         5.01393695210768    8.29344187973773    0.30805369763485
H         4.20895831554710    7.70178634364788    0.47252601689101
C        13.88690917046472    1.99419907149712    8.70326905630355
H        14.24742259866219    1.06521064720321    8.29003383044294
C        14.42011408088704    2.51769070303093    9.86418140029689
H        15.21327909418489    1.98722037122922   10.36899684713197
C        13.95164339910992    3.71969456621800   10.39517250706582
H        14.39161400898026    4.10099967011418   11.30433710396467
C        12.94161349699056    4.42494126375191    9.77949741367513
H        12.57154932187558    5.35580037167902   10.17785495592772
C        12.38628194904124    3.91744610521760    8.60607146900703
C        12.87070186701186    2.69671084636308    8.07789363560537
C        11.07136141264423    3.80205876017073    6.84673362422250
C        10.04251419439942    4.17933673451590    5.90670679862169
C         9.38873871955987    5.40400722296246    6.06689836561106
H         9.66614703446099    6.03517026619421    6.89540900118945
C         8.41929128451572    5.79576150756318    5.17085115948364
H         7.90597363903200    6.73597909918961    5.30647662027028
C         8.06375556667359    4.96324945409824    4.10524059471348
C         8.69673850858909    3.72802061545729    3.96241318564379
H         8.44708207973406    3.08774626767543    3.12958998827746
C         9.68534075847524    3.34899154247716    4.84388905990847
H        10.19137289325721    2.40440990244553    4.70972322418281
C         7.02268431561905    5.37103582150185    3.15812894818221
C         6.11042514268073    8.08419707972802    1.06747096503997
C         4.79588085357648    9.33179666646972   -0.62057646808870
C         3.50832818953030    9.84679082077716   -0.73077656286901
H         2.72019588993616    9.46359930908504   -0.09736043634436
C         3.24157239196081   10.84950919213743   -1.64359791387198
H         2.24176447066062   11.24938097629307   -1.71982227208823
C         4.25293728543567   11.33823108624459   -2.45375017962739
H         4.04462938874185   12.12492812556021   -3.16234897914884
C         5.52786097301481   10.80646793311359   -2.35934162602719
H         6.31525620762415   11.16931068718133   -3.00168467432413
C         5.80537925379394    9.80123332487577   -1.45109233011878
H         6.79405496022049    9.37600875001944   -1.40235936971795
C        10.57518194137596    8.73112226349303    1.52012388458317
O        11.37546494795480    9.35562658665304    0.99376402790599
C        10.38177228512238    6.40194975327279    2.98788720355293
O        11.16716583852232    5.65469824594462    3.36873561278969
C         8.99754697271900    8.73379510200884    3.85819704827124
O         8.91159973519016    9.37323143852836    4.80607601363912
Br        8.94037487797264    6.26544522788172    0.13813863395998

