55
CSD_code = PIMPOQ | q = 0 | S = 0 | Stoichiometry = C26H24N2PdSe2 | MND = 6
Pd        4.89628010312514   10.46297179236713    5.97805250022875
Se        5.67261851334906    8.75038738264238    7.60502629903789
Se        4.11984511664180   12.17925657242641    4.35430973776165
C         3.57324553753354    9.08702134439452    5.17941780498144
C         6.26634478079200    9.78255100943863    4.58459436642951
N         3.50544698377554   11.56234345460619    7.38279532414179
C         2.19034922390490   11.49464537855000    7.40521957894143
C         1.40520246424679   12.27139169496594    8.25721868482990
C         2.02446606427456   13.14205790815729    9.12196408213450
C         3.42196117383719   13.25410047492070    9.09874831028114
C         4.13253596291555   12.44681156900326    8.18262004116085
C         4.13430872657413   14.14391136848600    9.95091843014487
N         6.23021140255693   11.82508186015399    7.19554947006622
C         7.54563281798703   11.87880619130530    7.16184697379816
C         8.29301500657284   12.70141739214951    8.00485240718879
C         7.63417134822804   13.50231562343087    8.90687439948817
C         6.23530206017197   13.44285099986466    8.98325891784949
C         5.56474780477803   12.55895712503831    8.10869546632626
C         5.48324923169222   14.22787063948449    9.90171065498146
C         4.88733066806596    9.54293740880903    9.16199705572517
C         5.66597459933802   10.28231464828584   10.04506574234002
C         5.08153252419675   10.90082959996289   11.13513868857529
C         3.71948363806287   10.78455572859725   11.35468574271871
C         2.94559277664609   10.02352374658587   10.49232180752053
C         3.52524183617185    9.39971623881969    9.40480946481904
C         4.85849642577964   13.69872660416686    5.25692213509773
C         4.04744786304276   14.52125525225024    6.03051360535697
C         4.59768763704843   15.58141557218132    6.72737238449370
C         5.95771124990957   15.83106066998155    6.65633449680761
C         6.76405542098980   15.03051742725572    5.86224850791978
C         6.21860357849815   13.97347632993556    5.16006024940187
H         2.84777062379522    8.89203271441813    5.98056965997321
H         3.06784845803721    9.49185083537585    4.29637982876915
H         4.08538059089838    8.15537368278719    4.92353027635849
H         5.78017033691562    9.57693311870237    3.62688381478808
H         6.97793624145735   10.60959617739306    4.45819839552832
H         6.78250828551718    8.88581206431717    4.94325486478403
H         1.73032740000749   10.79900104902398    6.71199833645880
H         0.33146381280125   12.17324618162365    8.23342218214086
H         1.45379546364797   13.74628384195332    9.81221012857770
H         3.56495760586347   14.74779540686572   10.64224487539906
H         8.03722149200629   11.23611431384708    6.43976805942028
H         9.36903653106416   12.70564765572252    7.93229122543614
H         8.17465764194004   14.16961016085162    9.56240039190022
H         6.02241525914819   14.89702817836264   10.55613016639867
H         6.73151408849688   10.36324861301485    9.87480368642153
H         5.69263534608530   11.47854747723198   11.81452775064805
H         3.26331120403000   11.27473998825521   12.20240842413833
H         1.88486745229185    9.91494899614495   10.67112030718755
H         2.92750292953142    8.79867415088740    8.73211930800465
H         2.98383018003380   14.32750140376269    6.07647477892842
H         3.96154647246600   16.21336530053909    7.33128877248618
H         6.38720050353298   16.65463937678621    7.20794565672231
H         7.82350549361401   15.23374238804526    5.78951156808446
H         6.84210404613736   13.34948791592952    4.53317421083168

