54
CSD_code = PIMPOT | q = 0 | S = 0 | Stoichiometry = C25H18ClN4O3ReS2 | MND = 6
Re       11.76975852294605    3.12284054446906    1.60990529775678
Cl       10.72202763342166    3.51210681836457    3.68866453821360
O        11.60321083448162    0.08381450371799    2.07863306377422
O         9.03055730291289    3.09828650043527    0.17967119793531
O        13.45011407204791    2.94076395940124   -0.97126652585474
N        14.32017611353543    5.24255376386408    4.69606862123185
N        12.82002022854063    5.65413402416716    3.03432479238466
N        12.03218728806311    5.37383075143437    1.96282784786902
N         8.61386052620188    5.00469251467512   -4.25269804300705
S        13.95599028264046    3.25871733138875    2.95353563502675
S         6.33317976945660    5.48695228127392   -3.11868989169493
C        13.68245588960104    4.76727746147573    3.60113260073609
C        11.20096841037860    6.27482280910175    1.57005661631913
C        10.40128475697578    6.02938368281825    0.36702340999860
C        11.00761837393133    5.58363830779164   -0.81142583899803
H        12.07695114825810    5.43906860221366   -0.83770047259108
C        10.25529178662180    5.36876362838570   -1.94450123616891
H        10.71457810505247    5.03165765107942   -2.85938857318013
C         8.87351569045644    5.57665911771073   -1.92358703692898
C         8.26932584498712    6.02171067581213   -0.74755157685098
H         7.20094367635544    6.17786606189110   -0.72130542768194
C         9.02521611742801    6.26038579907788    0.37914645742377
H         8.54017411283152    6.58199127442703    1.28857216037890
C         8.10533861890056    5.33360707899397   -3.12160875502580
C         7.67920340393456    4.83836826959010   -5.22216501188829
C         7.92736470173849    4.48440328780708   -6.54726721684343
H         8.94339598861308    4.31529451644862   -6.86574668073740
C         6.86270381884639    4.35987788175186   -7.41193817283344
H         7.03989940972877    4.08611316768374   -8.44115722291495
C         5.55426965923270    4.58104113482041   -6.98195114289572
H         4.73978335271320    4.47545466040851   -7.68255469596617
C         5.28219856087395    4.93249426422173   -5.67477765909240
H         4.27122732452030    5.10345666787997   -5.33928639025453
C         6.34684217589513    5.06029022480966   -4.79878943399880
C        10.99780652855082    7.58355056559184    2.28263219265901
H        10.64830615276754    7.41810263689779    3.30444671844023
H        10.25440252623495    8.17703361554060    1.75946487480312
H        11.92443357743382    8.16124063747717    2.31199274675447
C        15.27870218875614    4.61539624866591    5.51095563411380
C        15.28945036368186    4.95781292773400    6.86138398564900
H        14.55707698725174    5.65567430601050    7.24404521754009
C        16.22306748521382    4.40129612303591    7.71322082539012
H        16.21700465555854    4.66837411500422    8.75910837752172
C        17.15920437212342    3.50366621853154    7.22652213088898
H        17.88572470909182    3.06499512320628    7.89284768538404
C        17.16161515673111    3.17974580150321    5.88115915545657
H        17.89595329071322    2.49155791847262    5.49165453753556
C        16.23320767211144    3.73421903070561    5.01775591814922
H        16.25890096770723    3.48615642633304    3.97069100566770
C        11.65457986338581    1.19620299525786    1.82276170855842
C        10.06147953519678    3.13398218015627    0.68515151283373
C        12.80595004687464    2.99553787669986   -0.02171027311523
H        12.62827224587783    6.51584832144616    3.53880374308894
H        13.91572817260793    6.06678771232466    5.12620706903879

