44
CSD_code = PIMPEJ | q = 0 | S = 0 | Stoichiometry = C19H14ClN4O3ReS2 | MND = 6
Re        0.72196948592374   10.70077449385095    2.55301142454953
Cl        0.81664251780049    9.85677363964815    0.35707475670540
S        -1.45103175308698   11.85245885347611    1.75604780108621
N        -0.81446009780916    8.97184746559315    2.53635288000792
O         3.28676427723390    9.15273817861484    3.30820843321302
N        -1.86952139258176    9.21910773430228    1.71409308766449
H        -2.34333547815141    8.42172918591213    1.29825757157891
C         2.31485641327100    9.71291760158518    3.06111575888276
O         2.39009152897838   13.15377186779738    1.72694528400494
C        -0.54689423614157    7.74812777686074    2.83139236184330
C         1.80768305290333   12.24705005004643    2.10679134193002
C         0.54161428602485    7.46777315539410    3.77057836641119
C        -2.20237709052317   10.45083977656396    1.26794508493751
C         1.65842844077965    7.89874988825391    5.86076494249988
H         1.71480836536594    8.43722251003421    6.79482724926638
C         2.63155893868878    6.95066407618264    5.54594120708295
C         0.62962947401821    8.15946354261233    4.98154608113479
H        -0.13191801669801    8.87876476323840    5.24137516372277
C        -1.29080980130158    6.57524367590185    2.25589798613707
H        -2.35204532808354    6.62302348719136    2.50991390746309
H        -0.89419990334836    5.65018226108629    2.66269691081501
H        -1.18620063918667    6.54633286725663    1.16893689390422
S         3.95824600445387    7.61044678682753    7.92910189549594
O         0.11805410081394   11.70408746770635    5.40750075822142
N        -3.28287835912443   10.52192411062348    0.45923331202199
H        -3.63057028056817    9.70775494578166   -0.02084303978252
H        -3.47261003263647   11.41651064774838    0.03853365363318
N         4.61849801624780    5.76533589822810    6.23141001841277
C         2.53710466976800    6.25029069761407    4.33977771191675
H         3.29745559210294    5.52285991702253    4.10521487067412
C         0.36791589982957   11.33217416789109    4.34958533868516
C         1.49930253677526    6.49679272428552    3.46987239649428
H         1.45574279967467    5.97060867620927    2.52804352008307
C         5.55369243701066    5.71230021951148    7.21325597430499
C         3.73504714039835    6.67404809411800    6.43492142552967
C         5.36816131773499    6.65486273839666    8.25288450223968
C         6.63450263792086    4.83384350245414    7.26886045974608
H         6.77371560486780    4.11812207293430    6.47468152784737
C         7.30255260899399    5.84186181069680    9.35857163648676
H         7.99532424064193    5.87709324317130   10.18572732794292
C         7.49659471545847    4.90852194634535    8.34017662471905
H         8.33864932135198    4.23513754101649    8.39600506379334
C         6.23985865696929    6.72254097832573    9.32670634994770
H         6.08788732723956    7.44622496168711   10.11216417674552

