29
CSD_code = PIMTAI | q = 0 | S = 0 | Stoichiometry = C8H10N4O6Zn | MND = 6
Zn        2.55764588738516    0.00023550566202    0.00108898115465
N         2.10098442330223   -1.94427500007490    0.17155277883598
N         1.13807802454988   -2.74298625382649    0.61339389288175
H         0.45387820543726   -2.38975583271517    1.26657318682053
C         1.23030567831834   -3.96220211790585    0.05256222546446
H         0.54023897202362   -4.74854636132992    0.28538831465424
C         2.31460585324960   -3.94025347806315   -0.79575665712737
H         2.69214379136855   -4.72841452701507   -1.41189871080531
C         2.82591643516301   -2.63863495355083   -0.69300837843569
C         3.97907404845917   -1.91961453639295   -1.36361886660274
O         3.98663761051026   -0.66063406113223   -1.14250735142221
O         4.79637407812598   -2.54293306246386   -2.01126330058207
O         0.94612726143825    0.10240058507752   -1.60000372571621
H         1.09271647749966    0.72191509012419   -2.32009198410714
H         0.22647600982664    0.44596959776654   -1.05770544294578
N         3.01494807288653    1.94470996660406   -0.16930900813872
N         3.97772786303833    2.74388906388886   -0.61072563195675
H         4.66260490872423    2.39093559611371   -1.26334150527941
C         3.88450565392277    3.96318229381714   -0.05017361866449
H         4.57443096216057    4.74978326723486   -0.28257766054531
C         2.79965058246125    3.94084738233942    0.79741441752690
H         2.42130360123384    4.72895905138192    1.41313902351839
C         2.28892838675885    2.63901878198522    0.69439560169665
C         1.13537943296360    1.91969559266065    1.36392489811242
O         1.12814745821192    0.66084107862960    1.14219015107460
O         0.31758157650137    2.54266032684667    2.01127193057846
O         4.17377550689190   -0.10378255681308    1.59847495499333
H         4.03217745971813   -0.73089105347043    2.31284018603988
H         4.88963577787070   -0.44211938537721    1.04777129897827

