43
CSD_code = PIMVAI | q = 0 | S = 0 | Stoichiometry = C13H19BClN6O2V | MND = 6
V        -1.95067893543789  -12.56264299708470   -2.89821260346763
Cl        0.16816234670542  -12.94252770662792   -2.73775879968416
O        -1.92599197158576  -11.73751195250573   -4.17976015811305
O        -2.37754866859977  -14.06811646047570   -3.29421335250435
N        -1.54655690779888  -10.82795831501684   -1.80762484325256
N        -2.15664516878240  -10.43552170093983   -0.68935528447015
N        -3.82971188248818  -11.98687443472094   -2.39459575221139
N        -4.26043477478069  -11.53598466833930   -1.22339524242281
N        -2.02553015045487  -13.31715074511286   -0.78670859404559
N        -2.62116513136906  -12.66504414716910    0.21182472855809
C        -0.65823916599342   -9.89985180116206   -2.13180424018891
C        -0.69082092690592   -8.87089707545979   -1.19216395472402
C        -1.66203814275221   -9.25638581383525   -0.29090221658908
C        -4.86049871696134  -12.02881682605876   -3.22602987515002
C        -6.00668049353420  -11.59520515388439   -2.56492709316632
C        -5.57279445075126  -11.28930932948923   -1.28875215390021
C        -1.50842469580425  -14.42687062643040   -0.28655925659610
C        -1.77936622476476  -14.50354267125686    1.08080801106547
C        -2.49076668273159  -13.35448089782666    1.35504817188115
B        -3.25722712844088  -11.30857484128462   -0.07836663563368
C        -2.46707656026170  -15.07410556595353   -4.22361651620419
C        -1.46937346991046  -16.17674168802299   -3.82049387350774
C        -2.09385204771070  -14.50079570115826   -5.59944946121564
C        -3.90133460716903  -15.63322687829757   -4.23315692779191
H        -0.04451241276998  -10.00769668043056   -3.00889484116293
H        -0.09542401825248   -7.98143166889566   -1.17341092135977
H        -2.02344905991886   -8.77170024337621    0.59403881699007
H        -4.73124943135617  -12.34110673597441   -4.24652777644887
H        -6.99969627900076  -11.51258285097950   -2.95638999113478
H        -6.11303076279903  -10.91590042453884   -0.44217294154610
H        -0.95852486508693  -15.10918476796123   -0.90789607889625
H        -1.49471354909141  -15.27783399611378    1.76327485247593
H        -2.90325971669977  -12.99077240057038    2.27467028390944
H        -3.76139988595465  -10.82019735105771    0.87094680524835
H        -0.48653504045300  -15.72715687291690   -3.67971426678202
H        -1.78334514731942  -16.64487976049420   -2.88927308431796
H        -1.41059537331887  -16.93376239603983   -4.59756349889351
H        -1.06939521697976  -14.12622678087723   -5.55960555953922
H        -2.18002775990997  -15.25929013651525   -6.37280200452440
H        -2.74950700717652  -13.66121173665682   -5.83369725704008
H        -4.59858288762398  -14.86492831891990   -4.56165637745772
H        -3.96573777566642  -16.48359487944822   -4.90622332595731
H        -4.18041925233988  -15.95070400011877   -3.22963691022728

