52
CSD_code = PIMVOZ | q = -1 | S = 0 | Stoichiometry = C19H22FeN5O5(1-) | MND = 5
Fe       11.81810649173073    5.28080610831023    3.15542136790982
O         8.31499504738113    3.46872536448692    2.71498753704488
O        14.77963481244227    3.44324612861168    5.05304839963217
N        12.84725985008338    3.92139795009281    3.89419416342684
N        10.54509711598746    3.93066717815284    3.06004118677376
N        12.90023459773969    6.39508721356006    4.20552084815836
N        10.32209005175319    6.40516614687027    3.27288386400728
O         9.28721118780093    8.42488534192102    3.46801461711271
O        13.58510877759539    8.40822463517325    5.02195357489761
O        12.75844349946114    5.42423529693807    0.57805216400778
N        12.34984177468304    5.39958568193856    1.69163236399908
C        11.04682539222511    2.63706305569278    3.18065580030569
C        14.08723701954354    5.74352978166021    4.78131337496185
C        13.96520630406982    4.22522657380620    4.58637765849240
C        12.37563847731615    2.63173204193578    3.66202368355310
C         9.03702321548393    5.76347247053557    2.95386550289742
C         9.24501002896980    4.24390376511414    2.87850844017760
C        13.03865984927635    1.42963065029631    3.86597473195509
H        14.04849327435502    1.43292191794305    4.24236448451427
C        10.39842563936993    1.44026069622687    2.90962615326200
H         9.38183639672026    1.45167638844268    2.55206390222381
C        11.65867823376132    8.44672539519414    3.62976963104756
C        11.07493434985524    0.24854504914834    3.11725514737418
H        10.57569807316038   -0.68729154015088    2.90679739835361
C        12.37763980941420    0.24331073011840    3.58911097037999
H        12.88913838836072   -0.69661480319853    3.74473833746976
C        10.30367353919143    7.73622010069847    3.46898534549203
C        15.35842025337103    6.21056204279590    4.06234820037391
H        15.23617096759243    6.06800271040322    2.98920590111879
H        16.20579566642349    5.62380683504010    4.40903665582138
H        15.52982854067533    7.26359286061187    4.26755798291540
C        12.79900637572545    7.72668856243087    4.36992665091791
C        14.19485022812463    5.96400543853740    6.29701076523660
H        14.42666543107358    7.00248757893771    6.51075601673742
H        14.97673198591418    5.31655675368036    6.68837365934757
H        13.24871903335931    5.70469446575945    6.77070444812421
C         8.52335763069763    6.23746305880359    1.58914086763286
H         8.26512951989850    7.29158148424110    1.64043463472834
H         7.64781496394178    5.65568719776688    1.31073295844476
H         9.30390992425266    6.09377796342417    0.84280129748923
C         7.98603230001229    5.98841435209061    4.05040247198118
H         8.40797516972287    5.72307105697767    5.01910025250826
H         7.13014191739271    5.34774385033942    3.84871788817706
H         7.67868214910860    7.02911833465463    4.06949328953622
C        11.40734450139725    9.78390118667721    4.33927697124784
H        10.65946717262931   10.35541585006573    3.79682360637355
H        12.33326563064550   10.34865277772783    4.40208746824579
H        11.04172822843702    9.60566028517023    5.34831521766220
C        12.17353940097820    8.73433299604364    2.20817874518044
H        12.36183123886101    7.80461362567538    1.67794273415485
H        13.09905992489407    9.30536428786777    2.26048701333584
H        11.43169064714169    9.31106512476114    1.65826365327423

