48
CSD_code = PIMYIT | q = 1 | S = 0 | Stoichiometry = C17H20CoN6O2S2(1+) | MND = 6
Co       -1.40397500019821    2.55715235347117    3.71801748527737
S         0.36126066805260    1.04729255494847    3.79990395891602
S        -2.95304801690401    1.21609498896673    2.56354014179775
O        -2.62685388718098    3.96531245786954    3.42810225484326
O        -0.42652893603868    3.61556114289110    4.92924977464064
N        -2.17139569363627    4.69024979805240    2.40211372343101
N        -1.11350720607956    4.37672410371199    1.80293582752633
N        -0.55006223560321    3.29454958718903    2.25214827882685
N        -2.25692316938282    1.97724084599599    5.25642611089431
N        -1.84426367628810    2.56328673708376    6.33900589650873
N        -0.90978886523782    3.38182814563116    6.15579783166867
C        -2.95150865203212    5.82529002759541    2.00666547825600
C         0.69950672189768    2.91556074496296    1.82202700012175
C         1.40802826177150    3.54654712142556    0.79682664723016
C         2.65860637823564    3.08032924610134    0.44540888253950
C         3.22733109623889    1.99624018901316    1.10167607987269
C         2.53966438512752    1.36656116978249    2.12500079908751
C         1.27916206175841    1.81848977861904    2.46860342145569
C        -0.03919178531500   -0.55398835014943    2.99585926685737
C        -0.81738258286004   -0.44544586949986    1.69314753846526
C        -2.32495862623307   -0.37703474728557    1.87269209035337
C        -3.76923079957546    0.62991166510915    4.04527815297361
C        -4.84359659441272   -0.23714965149016    3.96024879114595
C        -5.47845298636684   -0.64341274135859    5.12155100752676
C        -5.05213435504921   -0.16256785042434    6.35283730066139
C        -3.99210054634187    0.71658124958248    6.44126586532340
C        -3.33372392397424    1.12429893361905    5.27872505642058
C        -0.30577396736566    4.09443291615053    7.24192513227442
H        -2.45701915780274    6.31026099103132    1.16937327874898
H        -3.95303123992948    5.49930044917458    1.72099190144999
H        -3.03995973169291    6.51600792474692    2.84646646895328
H         0.96104408482907    4.39264836161712    0.30062063964969
H         3.20318670873041    3.57109710282604   -0.34585103649080
H         4.20885841390949    1.64765014971370    0.82428318005466
H         2.97912964169982    0.53620012387030    2.65569821440867
H        -0.58198047985656   -1.12933888263850    3.74575854783371
H         0.92706813353648   -1.02667253575751    2.82308932615953
H        -0.60499937320779   -1.33891022288886    1.09969956785910
H        -0.46640881278425    0.41393456696104    1.11510478473703
H        -2.81162589352417   -0.47177485941646    0.90200956685221
H        -2.68040237528792   -1.16714026457149    2.53244362152229
H        -5.18065935466135   -0.58723902180380    2.99668498275831
H        -6.31184457211314   -1.32463426291904    5.06335955013861
H        -5.55742274912868   -0.47565778271694    7.25290239678647
H        -3.65511309263574    1.10071873216121    7.39034557571788
H        -0.79259067257182    3.79342968852372    8.16559715305531
H         0.76053211022526    3.86594110979377    7.28113002296278
H        -0.42361965473867    5.16764208472748    7.08441246194543

