44
CSD_code = PIMYOZ | q = 0 | S = 0 | Stoichiometry = C16H17CoN6O2S2 | MND = 6
Co        5.36433228783657    2.89244947961143    9.83815617873157
S         6.74685603030646    1.46075205132949   11.25867208685054
S         5.28749172695040    1.24745102741871    8.28964780133171
O         4.01082225956159    3.84307618181168    8.97230265982331
O         5.73019595712167    4.44227307065587   11.02185750773433
N         2.85547156566211    3.49909491139160    9.53381129726123
N         2.79591542425960    2.69299767871238   10.50185983241026
N         3.96416107606600    2.23702416634592   10.86093311386474
N         6.72060984687141    3.63717228759206    8.85885880073478
N         7.17761889740524    4.76862397591451    9.29409815636326
N         6.65028654739147    5.16406220051076   10.37959852684371
C         1.66589186046140    4.07000060377602    8.97292577951051
C         4.07135482231176    1.36852597158882   11.91091097802713
C         2.98748104673585    0.92541917541249   12.67823808257444
C         3.19523802807735    0.05964265135543   13.73053755173037
C         4.47248629493183   -0.38563905538922   14.04596773311606
C         5.55413534339908    0.03689386094510   13.29218030185937
C         5.35419778493136    0.91126944079748   12.24100555202287
C         7.51000095264498    2.55183139347760   12.42916790220111
C         8.64908895642112    3.17446454899518   12.18422247204875
C         6.50882512099388    1.93023697589870    7.25312003501226
C         6.86254159225622    1.33818368154345    6.04747575252746
C         7.84360622580643    1.91119859695939    5.26123883760534
C         8.47612121554454    3.08124613946902    5.66284137963048
C         8.13098475619819    3.68698190066174    6.85452757074112
C         7.14647836067951    3.11526818528242    7.65710475572245
C         7.05121572519604    6.40592863152150   10.97281372417232
H         0.81134239524379    3.71222773406764    9.54090312886099
H         1.72725745271907    5.15848336005370    9.01925466228408
H         1.57954885493483    3.77009180901093    7.92694836876637
H         2.00012137699651    1.27767183554635   12.42527681820522
H         2.35215728317163   -0.27622549904467   14.31576195174637
H         4.62459539960616   -1.06327092376583   14.87146045491931
H         6.55366894867190   -0.30407737414682   13.51671975100774
H         6.96282005138228    2.64839013957074   13.35378046880015
H         9.09537714909552    3.82818915127010   12.91384332982041
H         9.16539640686354    3.06401602165559   11.24551924137523
H         6.36483730454458    0.42989077125100    5.74420851035078
H         8.11862958783440    1.44418183604618    4.32711184540224
H         9.24068780206290    3.52225088771069    5.04063239798589
H         8.60828532050216    4.59747443138967    7.18330773324908
H         7.79613177868295    6.86670353779621   10.32954178488267
H         6.18333585406871    7.05989168393101   11.07547277948439
H         7.46799732759741    6.22108086404867   11.96528240242980

