76
CSD_code = PINCOE | q = 0 | S = 0 | Stoichiometry = C21H48Cl2N2OsP2 | MND = 7
Os        4.44501590658544    7.60074440403461   11.68109569422881
Cl        4.79533597269863    6.07124001271052   13.58859793916357
Cl        3.55267584954753    5.58709232311627   10.68201891073457
P         6.61898609466483    7.02207383305434   10.77045191854671
P         2.21197221063265    8.12855321765790   12.47002647089965
N         5.38241545209711    9.00186758646582   13.19733736406470
N         5.75493792722577    8.61278746049632   14.41154384140472
C         6.28124231727152    9.61943148344448   15.11538237926356
C         6.24877641609901   10.73635316667191   14.30629939916460
C         5.67555156435199   10.29668873688413   13.11292521661817
C         2.17115093580440    9.08100099724314   14.09716075280275
C         2.41129229468306    8.14218216068132   15.27885238958044
C         0.96023027697072    9.96950935378393   14.37628244685574
C         1.30969450207053    9.31493713839139   11.33146459066512
C         2.12106251805833   10.58867449431501   11.10553653616941
C         0.98605637456273    8.66207495302511    9.98969419066023
C         0.96165387812787    6.73077598674867   12.54007076586303
C         1.41739655623005    5.52577366087842   13.35892499880700
C        -0.45825215324751    7.11336435670277   12.95270036623191
C         8.07611716964369    7.59272274140414   11.82272525632773
C         8.27936022945024    6.65910234113270   13.01542156520138
C         9.41115474296670    7.84050353820053   11.12271794135197
C         6.89365419476120    5.24122181788573   10.24622239215575
C         6.61961376348061    4.21782056287990   11.34524832840895
C         8.23645889981746    4.92856846231182    9.58904449693966
C         6.97605996164201    7.89696606371754    9.15025933867886
C         6.06318371368952    7.39676606825072    8.03317965086829
C         6.83440776213161    9.41030419299943    9.29671819692602
H         3.95067790696525    7.83703876335326   10.24123702425897
H         4.57691744788353    9.01556532202708   11.10311168620636
H         5.59215151965066    7.61828160582716   14.63720689375384
H         6.63613310799465    9.48693908564710   16.11709042318661
H         6.58739392575729   11.72490476232999   14.53742710204903
H         5.47305372593610   10.86162870551532   12.22427586095668
H         3.04572865311949    9.74068038484854   14.00776189210955
H         1.48367858703559    7.65857183416146   15.57611085031609
H         2.78630507869509    8.70096138838383   16.13642929211546
H         3.13626514060983    7.37146246363796   15.02720050274246
H         0.03519777729430    9.40199564823931   14.38969634032421
H         0.86662215104571   10.77380847938320   13.65228454664302
H         1.08649296747260   10.42375158192476   15.35944689194901
H         0.37398093827682    9.58798553304585   11.82888852599199
H         2.97117294875814   10.37909052283232   10.46170073555703
H         2.49398704761359   11.00148133075135   12.04007812983432
H         1.50115224399362   11.34181075383218   10.62029500090084
H         1.86232778282877    8.14420292467658    9.60021665462173
H         0.69029361265273    9.42360350451839    9.26966906716057
H         0.17228800175583    7.94695121760362   10.07522701228192
H         0.95499994239800    6.40704938368563   11.49001706203181
H         2.41729684241686    5.21892363584257   13.07199971558628
H         0.75181727380860    4.68640623379003   13.16002931727626
H         1.40269049875758    5.72408137106517   14.42685887333102
H        -0.84000543833205    7.97273385277715   12.40821189536340
H        -0.51097102311684    7.31643546281074   14.01993827650359
H        -1.11885966337443    6.27123668658225   12.74782477892383
H         7.72573183611065    8.56061872083961   12.20807917803506
H         8.87093890794823    5.79380434348744   12.72559578827788
H         7.32691627913213    6.30947965952257   13.40731170242437
H         8.81190618166425    7.17537936631400   13.81426627905492
H         9.78567770575059    6.94590397164473   10.63540898693417
H        10.14219985199281    8.14162931018717   11.87355484038156
H         9.34700760390450    8.63808612005431   10.38810464012820
H         6.09360046625132    5.11946057650466    9.50281471780117
H         5.66332479186025    4.40702921694835   11.82061683263312
H         7.39567961464959    4.21215687064419   12.10533441809485
H         6.56996115240548    3.22334435967335   10.90299632840150
H         8.49222806650330    5.62634871223580    8.79629089406223
H         8.18503756482860    3.93250685605475    9.14993240517026
H         9.03651414277448    4.91867964201337   10.32582741873414
H         8.01454590274047    7.67342433681784    8.88737805512550
H         5.02994778056640    7.35904595878006    8.37756622275630
H         6.34960920015059    6.40556326634563    7.69213144583727
H         6.11583759731709    8.07364200618770    7.18178053859654
H         5.78515048259847    9.67895964203434    9.38630334514991
H         7.24156593907189    9.90760070629183    8.41701511819682
H         7.35832460186567    9.78225280323832   10.17425315364376

