178
CSD_code = PINLOP | q = 0 | S = 0 | Stoichiometry = C62H110ClIrN4 | MND = 5
Ir       -0.43735692625504    0.84850306957148    5.25035952252231
Cl        0.14167674462693   -0.50477661381176    3.40147135227300
N        -3.07707177544596   -0.71739848616042    5.11957371166181
N        -3.16432988600626    1.00496288709142    3.83913395320137
N         2.30204533552943    2.23458090632552    5.13315147479526
N         2.38196263422581    0.52566923975723    6.43365811346079
C        -2.36858651973113    0.37592418190359    4.74082154294387
C        -4.29383621555400   -0.74709294057957    4.49216186719906
C        -4.34873672712132    0.33453603242789    3.68820806241681
C        -2.57411569602407   -1.79071931118944    5.94761229180481
C        -3.63932276015022   -2.21687825480409    6.96873829109418
C        -3.07346857732213   -3.04947634619013    8.11871575821023
C        -4.14389482708236   -3.84700762800216    8.87060830548735
C        -4.73325495018910   -5.01338156381491    8.07059342841904
C        -3.74076676122915   -6.15668849085677    7.85091118071248
C        -4.11893011559653   -7.09289749183419    6.69873180815040
C        -4.05990876876862   -6.44975218376763    5.30926709930261
C        -2.64551173952345   -6.06730118243444    4.86712320197525
C        -2.62063068365710   -5.03067294338563    3.73935687281785
C        -3.07137539546836   -3.63120724697731    4.17101778585942
C        -2.04429884544130   -2.93757866603400    5.06639690611374
C        -2.76970251873356    2.13335252283937    3.02532772174031
C        -2.28760978752053    1.64661259607007    1.64572604080824
C        -3.33016310375086    0.94706315205685    0.77203248990128
C        -2.98209419315331    1.01119562976081   -0.71895550184384
C        -3.15727092513063    2.40281040746564   -1.33537441538113
C        -4.62169401860686    2.82347380964101   -1.47387276829018
C        -4.81495039800692    4.32841511325233   -1.68754919001732
C        -4.40330426842383    5.20222373557430   -0.49827793755884
C        -5.27717244447537    5.00941427527089    0.74334219657516
C        -4.58871605648962    5.44919158049923    2.03942384115702
C        -3.43365596452109    4.53999643174454    2.47061754176321
C        -3.89759087702091    3.17437645137998    2.97471004122152
C         1.55746787856968    1.19701609202510    5.59104060729851
C         3.54593476174770    2.22688316287497    5.70835882386479
C         3.59613228470131    1.15496457760280    6.52403508957701
C         1.93801307892724    3.16275032731881    4.08072464777441
C         2.88739249295940    2.95938481308019    2.88593649151739
C         2.41232790211270    1.88384989064239    1.90590980462113
C         1.30491472343084    2.37630625231638    0.97393755583784
C         1.80599330215182    3.34969651062710   -0.09288411520353
C         0.68929080978353    4.08101379625125   -0.84397201589157
C        -0.19098780427943    4.97950866258241    0.02956540197177
C         0.53985094492538    6.16266428917148    0.67080780544791
C        -0.09965941281788    6.60554201771413    1.99147797180668
C         0.15560697261239    5.63791523880721    3.15222022894733
C         1.59038652213897    5.71318655312204    3.66948875655943
C         1.96549614748659    4.59587325712367    4.64522967087254
C         2.12389534322228   -0.75755059244221    7.05676143810058
C         2.21693295998102   -0.60185022515849    8.58639966636165
C         1.94783711149626   -1.86354198377152    9.40932674505200
C         0.54181225160214   -2.43614892023130    9.24344317718208
C         0.40169904140382   -3.82745783941575    9.87085795237676
C         1.08970419332194   -4.93523220518916    9.06518358550435
C         0.32779947934528   -5.29408821409060    7.78599495124278
C         1.20290023888062   -5.82969571824981    6.64905189434368
C         2.22300001454428   -4.82951297728063    6.09676354168262
C         1.59913442334278   -3.57865134423131    5.47764714857452
C         2.61759816706467   -2.47033575013310    5.20892180413947
C         3.11133401899235   -1.79399746275330    6.49044171523842
C        -0.85317496743450    1.41954218187267    7.24644148217395
C        -0.87244856832517    2.57518469262863    6.40993184978392
C        -2.11240179811083    3.40497127659351    6.15986147844036
C        -2.38241647474167    4.46167502266637    7.24112577034357
C        -2.93544258392886    3.92007805936422    8.55922315045264
C        -1.90863470275781    3.15098047625950    9.39985112183231
C        -2.11107700503401    1.63711987096938    9.40922407166134
C        -2.06960954891534    0.97558309677372    8.02372589999942
H        -5.02553664102196   -1.50814368463640    4.65849569821907
H        -5.13596868531084    0.66427280051225    3.04498460422692
H        -1.70779677431672   -1.37314846255790    6.47609106874111
H        -4.11196035541078   -1.31852342291802    7.37329983464293
H        -4.41549562036895   -2.79033375186224    6.46508336972048
H        -2.56737042932122   -2.38790438450345    8.82490361530829
H        -2.32639393252182   -3.74032919931183    7.73404520786006
H        -3.70551512516398   -4.24083762287014    9.79086101485451
H        -4.95227541317491   -3.16922302233681    9.15604508946044
H        -5.08471009812266   -4.64266109800558    7.10884599703406
H        -5.60789170292603   -5.39788128083068    8.60053794835480
H        -3.66951646874851   -6.74479404913698    8.76924465850462
H        -2.75012314990407   -5.74786236036969    7.66047438837242
H        -5.13207106749075   -7.46704902173719    6.86709949603955
H        -3.44393983842565   -7.95237646049975    6.71499519989473
H        -4.48090472656589   -7.15036347994958    4.58400474079585
H        -4.69999237490654   -5.56814410946884    5.29984481712411
H        -2.08761770501377   -5.67740330274686    5.71678855041331
H        -2.12503880833103   -6.96729733265096    4.53118321162816
H        -1.60575019138650   -4.96156566771254    3.34211343781898
H        -3.26878421311784   -5.37656229296149    2.93030601074169
H        -4.02865003231845   -3.72136038262449    4.68388409745474
H        -3.23631248764119   -3.02604289241272    3.27736936761291
H        -1.58844275570206   -3.67494427544077    5.72470558544302
H        -1.25081379485093   -2.52568359880683    4.43955404225439
H        -1.89757371678257    2.56760783222205    3.52951186896709
H        -1.89444431452103    2.50907117928560    1.11065486295448
H        -1.45313039322644    0.96356735223484    1.81718461827139
H        -4.31283380786302    1.39605497129838    0.91325633405312
H        -3.40552370123048   -0.10053324040107    1.07009163906664
H        -1.94593836218739    0.69151831099152   -0.84871026749929
H        -3.61557086375191    0.30454919193490   -1.26084326159468
H        -2.62345965412326    3.12834313612314   -0.72424261034251
H        -2.69188708250332    2.41420270064272   -2.32387228749650
H        -5.17799558801700    2.51663501431721   -0.58860804603352
H        -5.06361317223020    2.29358434781453   -2.32135403222321
H        -5.86821412724407    4.51509800402311   -1.91279530192221
H        -4.23267239166389    4.63525833359879   -2.56012368615808
H        -4.44923827902414    6.25021778108354   -0.80459304869792
H        -3.36398033751894    4.99313011088852   -0.25025557960802
H        -5.56391655562055    3.96268350175278    0.83219245250491
H        -6.20028161529396    5.58092744492779    0.62204696443003
H        -5.32979677205255    5.48244542124726    2.84188873022867
H        -4.20543897132175    6.46366277064524    1.90456991262079
H        -2.75901379723820    4.40598313634058    1.62785066309475
H        -2.86967137367844    5.03883806443018    3.26113591227406
H        -4.31304948907966    3.28606557532776    3.97905670234840
H        -4.69877379091375    2.81268147046131    2.33253161003196
H         4.29311990350963    2.96649820242170    5.50717021134940
H         4.39381616528016    0.81001837267210    7.14889206417914
H         0.91502703878739    2.89557733519970    3.79568052731461
H         3.87254494157576    2.68062426754819    3.26487786371119
H         3.00864546057618    3.89996974863197    2.35292693792553
H         2.04056067288672    1.02489068716433    2.46658658193191
H         3.26077875556627    1.54696195690891    1.30594218307200
H         0.53754040894190    2.84947650544061    1.58295760218684
H         0.84570196465258    1.51526638471321    0.48627722088790
H         2.47046442135305    4.08603842700863    0.36072090975590
H         2.40306994378207    2.79596037250410   -0.82180271007940
H         0.04805668772173    3.33782406952767   -1.32494278333028
H         1.13967580536272    4.68786374596318   -1.63385535174657
H        -0.63625221172938    4.36976057760653    0.81444863567818
H        -1.00941917037562    5.36217330908576   -0.58609243350266
H         1.58101466459146    5.90074171377247    0.85110647759660
H         0.54083181181136    7.00474141560051   -0.02464551470209
H        -1.17674729447921    6.70988691154087    1.84100216066639
H         0.28976482606545    7.58943018606793    2.26431848491657
H        -0.52617958033993    5.87344904367862    3.97273709580725
H        -0.06237076413559    4.62138687553142    2.83015073433067
H         1.72839160544752    6.66796515180276    4.18412894467995
H         2.28257227576140    5.70983908496223    2.82783024034052
H         2.97069771427737    4.80350253757321    5.02068835273518
H         1.28234043891287    4.63279633431119    5.49707178888234
H         1.10004533423673   -1.02098664184250    6.77177835650749
H         3.21809042123378   -0.24492388920395    8.84104179007500
H         1.50653694742086    0.17134947012774    8.88863625694192
H         2.10426549951561   -1.61599133719564   10.46282493334641
H         2.68403390992807   -2.62628330829949    9.15627847778857
H         0.29268298949827   -2.49082438683181    8.18554039697983
H        -0.17351060236394   -1.75596700290642    9.71132652704511
H         0.82604422817366   -3.80175725847387   10.87755192150941
H        -0.65837148800144   -4.07290070075903    9.96851952485682
H         1.18219280564807   -5.82589751248643    9.69036216515097
H         2.10087285686157   -4.61755321398611    8.81671733334972
H        -0.42563417970390   -6.04930561275086    8.02480793631052
H        -0.20229160908553   -4.41210818948016    7.42897667204000
H         1.73918202600385   -6.71419932492380    7.00274880853848
H         0.54806972529532   -6.14662459746279    5.83321296400932
H         2.90829904355253   -4.54463272051067    6.89592148743032
H         2.82225378331642   -5.33673612980467    5.33647407190052
H         0.83060827156431   -3.17736797729963    6.13499581249547
H         1.11382403839821   -3.84765184155723    4.53835678768023
H         3.47189242152279   -2.89249208600727    4.67483090270995
H         2.15795516186436   -1.72256823556087    4.56072849535949
H         4.06117182507473   -1.29661298083809    6.28463905891250
H         3.30957241005794   -2.55478356941599    7.24230509642287
H        -2.99260971647089    2.77253160491697    6.05390093596530
H        -1.97812239776331    3.94829589664315    5.22135427777289
H        -2.04237767756194   -0.10258142565392    8.18978072104346
H        -2.98114553427463    1.20314013774673    7.47453232876846
H         0.04635405646471    1.29975747508435    7.85419279789909
H         0.00741652760020    3.21903859566353    6.47760149453228
H        -1.46259751764483    5.01779772282450    7.44048800939802
H        -3.11062694920513    5.17258767428388    6.83808585999374
H        -3.29861818220096    4.77418663238768    9.13709120507532
H        -3.79847020112926    3.28420172379319    8.35456438435433
H        -0.90654873361019    3.37481589034968    9.03442780101662
H        -1.95889176907171    3.49491624778621   10.43636734176137
H        -3.07037053069356    1.40471655973404    9.88020687557509
H        -1.32669831747933    1.19674148111180   10.03180100310193

