51
CSD_code = PINQOU | q = 0 | S = 0 | Stoichiometry = C16H26CoF4O3P | MND = 8
Co        1.76152650819383    1.47775042109207    5.49286804307748
P         2.58438989899192   -0.19043968359343    6.67358177173777
F         3.66098334626978    3.17564236657435    4.26798822413324
F         4.57392894056889    1.37331797199396    5.09669850496889
F         2.04539618703434    1.59136944004344    2.68844295493272
F         2.97628138159371   -0.18405447677704    3.54373462089894
O         3.78130102278145    0.18011832353275    7.69252671504303
O         3.14075259249115   -1.58493423800483    6.15290071195631
O         1.39289354679910   -0.72581918472839    7.59168417400821
C         0.94458216233220    3.29150937015579    6.29793032233258
H         1.42801553278729    4.16608607675799    6.70158684901237
C         0.47520664673102    2.18361905834135    7.01251050784341
H         0.49821710190016    2.05866498224220    8.08352554308440
C        -0.25908848635350    1.33651068737853    6.11301288612267
H        -0.83656692184934    0.47791759143135    6.41241538742189
C        -0.21577479161282    1.91294034779200    4.84614142261123
H        -0.73889302265327    1.58262452883647    3.96412700683921
C         0.59963594652971    3.08342691904129    4.93626756929802
H         0.76077772214705    3.78928333400126    4.13597446736707
C         3.39409825033717    1.90566993454172    4.65820549806502
C         2.55551002979135    1.07486518129028    3.83106872291463
C         4.02552994930825    1.49802908061333    8.18214059240970
H         3.56172748694702    2.21973943776029    7.49204698056308
C         3.40545256999633    1.65339545680977    9.56479206365740
H         2.33228556355905    1.49097048854881    9.51006311257068
H         3.59274849154679    2.65328413685349    9.94636048736708
H         3.83628047305757    0.92549028708248   10.24864495362059
C         5.53356247348942    1.71004001096767    8.20976838602361
H         5.94292336313745    1.57372901799071    7.21341473435168
H         5.99742411485317    0.99178386214343    8.88156137698587
H         5.76008879902400    2.71545537463836    8.55237110880558
C         4.42938800862473   -1.88079556175076    5.59143528179714
H         4.84568362893812   -0.98044703118630    5.13564241526963
C         4.21700745403279   -2.95106976913041    4.52914708010721
H         3.53717563280357   -2.58531612620952    3.76659349916448
H         3.79247073871531   -3.84376087921794    4.98188523724192
H         5.16675705440983   -3.20273453543424    4.06655373960678
C         5.35565408792706   -2.36682323361074    6.69975190980133
H         5.47335494787189   -1.59170582379015    7.45054223422547
H         6.32902155188996   -2.60964447235211    6.28284257153557
H         4.93796600433781   -3.25471376200190    7.16900397348761
C         1.56443662973845   -1.81982146275870    8.50694288141002
H         2.63619847710172   -1.96338122063887    8.68682291296771
C         0.97167579017771   -3.08035571157158    7.89252386026154
H         1.46287155821285   -3.29166879355876    6.94763918345827
H        -0.08976874728948   -2.93578113829519    7.70784901230918
H         1.10501109432839   -3.92285441070290    8.56622721450968
C         0.86623465611165   -1.44767162476263    9.80887349866479
H         1.32468142733989   -0.56658480057299   10.24934854522229
H         0.93786951201487   -2.27047208212317   10.51494361389761
H        -0.18238638701059   -1.23568366568319    9.61557563503240

