59
CSD_code = PINTUD | q = 1 | S = 0 | Stoichiometry = C28H24Cl2CoN4(1+) | MND = 6
Co        1.55954642570285   11.00671351791909    6.44386199160204
Cl        1.25314862007097    8.93215975354969    5.85426303763033
Cl        0.69365805752094   11.77245000786901    4.59732059891759
N         2.36579751212963   10.31513754534906    8.07637615208554
N         3.29956281363241   10.79874527653343    5.69850413182489
N         1.79668905305603   12.86706817409310    6.97393400091218
N        -0.18987272997053   11.19972067326435    7.16731998959845
C         1.83628384704268   10.07876267959878    9.26038444932167
C         2.53388847278746    9.40816352163877   10.26477006196491
C         3.82381918856674    8.98696108178621   10.04277737681156
C         4.42977068511339    9.24249591922630    8.79889428765313
C         3.62845541729883    9.90219972336543    7.84540167127580
C         4.13300979287513   10.15100228032874    6.54187875813946
C         5.41767675231972    9.70004699839278    6.18390764591582
C         5.83434022835970    9.99432650631895    4.87137518868019
C         4.98287257432259   10.66905153933366    4.02998483421627
C         3.71349575623651   11.04735081522851    4.47107667271959
C         5.76037873889300    8.83750391196202    8.44093258310090
C         6.21332929024263    8.99959871908061    7.15435720206990
C         6.61841296017211    8.22655379988750    9.50762079267866
C         7.53641685783737    8.45597087414269    6.70826317734104
C         2.82939835126617   13.67416812100442    6.83187280675289
C         2.74699844759109   15.04002374182464    7.10244532991953
C         1.55482164027256   15.58919598436171    7.51198769970052
C         0.42897894852768   14.75928699417056    7.66531378770905
C         0.62697750954486   13.39133696942489    7.39234760397767
C        -0.45259732982137   12.47781391649110    7.51768149826829
C        -1.71022073602510   12.92784995668574    7.96319962739870
C        -2.73630177900263   11.96413663671997    7.99617599462354
C        -2.45677438093495   10.66965596553904    7.62917398463136
C        -1.16793705440571   10.31654891273590    7.22576184607465
C        -0.86585955365680   15.21306405761135    8.08960523102283
C        -1.88328844392863   14.31468919433989    8.29967124880915
C        -1.05398730398373   16.68755721797567    8.28163562503246
C        -3.20413593562809   14.73693070612192    8.86800479653031
H         0.82330256512662   10.41337055256296    9.43268901438731
H         2.04633123137776    9.21836965254862   11.20739324801735
H         4.34926882959736    8.44685886807866   10.81307191338714
H         6.81149411207105    9.70206493280688    4.52360975472054
H         5.27524496447730   10.90380382229808    3.01925197080269
H         3.02087620556282   11.55108157953695    3.81072483259899
H         7.67264772692244    8.36090317181900    9.29074782379554
H         6.41751055099003    7.15894674883209    9.59667617175625
H         6.42213524581695    8.69153472053724   10.46968446930129
H         7.87379861076469    7.65282355350002    7.35361794095402
H         7.45898790118830    8.05318876686191    5.70196901461029
H         8.29419124661568    9.23978107687681    6.70494674498218
H         3.76015071141391   13.24218386282976    6.49285386639350
H         3.62369700150605   15.65497861024797    6.97789054211235
H         1.49463217887196   16.64505761572696    7.71854115873260
H        -3.73988719635975   12.23537364160081    8.27982834011826
H        -3.22643945548845    9.91485836825696    7.63520399723816
H        -0.93531050778761    9.30399276979217    6.92557970729511
H        -0.62095580318629   17.01246356295399    9.22779834778076
H        -2.10257526079993   16.96122267128371    8.26997520586571
H        -0.56686291388763   17.23443657842283    7.47822287300790
H        -3.61681880925735   13.95517969072665    9.49954284803343
H        -3.10456986569716   15.62864016686652    9.47761812454162
H        -3.91700196387718   14.94224332116971    8.06938040464558

