33
CSD_code = PINVAJ | q = 0 | S = 0 | Stoichiometry = C10H16CrO4P2 | MND = 6
Cr        2.08074641083016   -5.77658036149926    5.11590885482266
P         2.91009895896604   -5.56360951323228    7.28682543903976
P         3.09964720160686   -7.87282531304906    5.25059614040580
O         0.80260686018514   -3.06932682434186    5.03565453402616
O         4.50160952260741   -4.43243113204525    3.94794376430905
O         1.11328192790910   -6.13032162622098    2.30340773023767
O        -0.59712748474053   -6.84032040559672    5.97147199268819
C         1.30480188858977   -4.10856451256901    5.10328377785903
C         3.61533635780449   -4.98852129042963    4.43941851262754
C         1.49949424045575   -6.02972340101538    3.38862383555382
C         0.46366643694355   -6.47489138232292    5.69497888911849
C         4.16072515236028   -6.90083646941204    7.60313342179947
C         3.65324016817952   -8.20113288665512    6.99501432964056
C         1.80319274046226   -5.76455960527682    8.73837691330119
C         3.86174314110764   -4.09151724632663    7.82221584551579
C         2.19145750714074   -9.42638588807293    4.89982028906702
C         4.64780513529910   -8.20124149807430    4.31983062278481
H         4.35936493741734   -7.00244591099135    8.67558321445560
H         5.08633320330428   -6.59072664607677    7.10560415233661
H         4.41578863707826   -8.98715303096038    7.01890748740111
H         2.77409275322369   -8.55281255168594    7.54608089497112
H         1.26444501063296   -6.70800763018483    8.65572021355351
H         1.07494776053566   -4.95347607045354    8.71785701695780
H         2.36181075363799   -5.73396415143759    9.67504772664551
H         4.64210591947633   -3.88875433325209    7.08954050207810
H         4.30538002839386   -4.23957739883026    8.80806617248645
H         3.18259994260086   -3.23892710075778    7.84803390275197
H         1.25755525067666   -9.42549838207432    5.46096180943773
H         2.78419959031307  -10.30349832968720    5.16427499903528
H         1.95478770569103   -9.44850494519897    3.83575104758589
H         5.38644264506671   -7.43885310249760    4.56557645346075
H         4.42060993846813   -8.12614700999037    3.25608628660062
H         5.04580975777625   -9.19246404978042    4.54220322744490

