78
CSD_code = PINYUI | q = 0 | S = 0 | Stoichiometry = C26H46ClIrN4 | MND = 5
Ir       -5.82020848210553    1.86960725260829   12.83147595389242
Cl       -3.92869462321495    3.32813178922222   12.62741425594991
N        -4.59606107581566    1.53162456994572   15.58739092651474
N        -5.91165989712091    3.22707553007930   15.54033595931076
N        -4.87690598247849    1.17937763238970   10.02109737614319
N        -6.19786110813490    2.87134529336850    9.98426595328368
C        -5.50979244490253    2.15992643312129   14.81501031013401
C        -4.42819706369486    2.19809050777114   16.77239727154141
C        -5.25647787232175    3.26545637972123   16.74277475582955
C        -3.82115871704118    0.39006523819649   15.15453944130067
C        -2.36945268561878    0.80642006881882   14.92795743547710
C        -3.94632975776312   -0.76365244639958   16.14606737768118
C        -6.81197589568754    4.24595522451025   15.04775900917398
C        -6.04073596555278    5.53977788013544   14.79589819271103
C        -7.98640777594039    4.44594015216923   16.00197857221484
C        -6.94677629252500    0.09991848222867   13.13958919629139
C        -7.81681141982148    1.23315135889426   13.10559915127384
C        -8.88689682448510    1.38915773758897   12.04978023087153
C       -10.20506390806056    0.74310854494263   12.50134267015387
C       -10.06509913990937   -0.68377970662042   13.02808511579966
C        -9.45856453546113   -1.67145665701459   12.02343492426699
C        -8.01906328591102   -2.07889312187486   12.33802696432246
C        -6.95942777463556   -0.99431380670535   12.09274523801334
C        -5.73036170335403    1.89219526341681   10.79558152764960
C        -4.82051310530499    1.70138045887276    8.75554706155833
C        -5.65123503105860    2.76546931360828    8.73238829544396
C        -4.00863885766519    0.13206531308255   10.51104790877686
C        -2.56904387657176    0.64087597710690   10.56877124455662
C        -4.13452890573318   -1.13083195745190    9.66264288880638
C        -7.01348103088579    3.97974264297049   10.42755882895178
C        -6.17071559631283    5.25334966951278   10.47562963179618
C        -8.24734903456532    4.14363492548315    9.54365487368222
H        -3.74674798707293    1.87595944009369   17.53231289008188
H        -5.41930832649663    4.03167215650814   17.47212545498663
H        -4.25360897760128    0.09347773571505   14.19047555854951
H        -1.90296332767264    1.11963096715454   15.85957010385366
H        -2.33989012674386    1.63674345281462   14.22603426467456
H        -1.80137808206109   -0.02242525814719   14.51430120565131
H        -4.99353689635789   -1.00560022224404   16.31436286378574
H        -3.49015806649315   -0.51062428739464   17.10056640949358
H        -3.44647529030341   -1.64408907201155   15.75154103646756
H        -7.18154902101502    3.86791406405938   14.08613076064018
H        -5.21104092615117    5.33716596271290   14.12241789060435
H        -5.64574948510652    5.94666912321529   15.72437848282737
H        -6.69040275118734    6.28091432332288   14.33822095182902
H        -7.65375322768507    4.86029556929502   16.95110441612698
H        -8.48477494850389    3.49772586062826   16.19190408867418
H        -8.70467133541976    5.13281240833172   15.56268299156608
H        -8.56036609971245    0.95260280207454   11.10796304009531
H        -9.09506928350902    2.44643760412986   11.87134818964957
H       -10.64054617040059    1.35447204832691   13.29653875624998
H       -10.90557351968062    0.75088226098993   11.66173534726543
H        -9.45590887746637   -0.67245391965161   13.93139899902415
H       -11.06291942504951   -1.02635058398849   13.31462022580619
H        -9.50408752361284   -1.25228494663020   11.01692179114066
H       -10.06096344577048   -2.58384327071499   12.01601749313260
H        -7.76838722804962   -2.93756832538449   11.70760726804020
H        -7.95989926913929   -2.41095821723079   13.37740526952891
H        -5.98892206369394   -1.49759863634375   12.10889372372406
H        -7.09911882078176   -0.57792767675496   11.09572996027091
H        -4.20630899057505    1.29008118235170    7.98162586619809
H        -5.88454576093309    3.43991683621792    7.93487296113540
H        -4.34490622066766   -0.07054652074800   11.53457365886462
H        -2.53150926379673    1.54711518788666   11.16904181369184
H        -2.19451932791849    0.86674662244041    9.57261635795457
H        -1.92511107713592   -0.10764427538311   11.02273621615015
H        -3.74212143533714   -0.96829058744668    8.66128411629516
H        -5.17536969673001   -1.43554901223403    9.58364912058340
H        -3.57064929013190   -1.93903406940618   10.12074267358628
H        -7.31672189507892    3.72731106601185   11.45050242966164
H        -5.83648940524475    5.53798065100863    9.48019543417508
H        -5.29727773209406    5.08339509322788   11.10109164974664
H        -6.75022197190535    6.07060927233066   10.89666247778898
H        -8.78878933240864    3.20362832314977    9.46711342638985
H        -7.96970178330185    4.46795916331038    8.54324936494305
H        -8.90941337514075    4.89208361302154    9.97100264954774
H        -6.75179636904593   -0.31845245163750   14.13068098157508
H        -8.18808690016631    1.56892259931670   14.07766082459918

