90
CSD_code = PINZAP | q = 0 | S = 0 | Stoichiometry = C30H54ClIrN4 | MND = 5
Ir        7.08154090394013   24.12577077252694    2.72686270065631
Cl        7.25331037260660   21.73756174631013    2.86354890479019
N         9.31594218713885   23.95911065262293    4.79108200539327
N         7.38208547026726   23.88093638158508    5.74546147659941
N         4.89593413373108   23.36426018422820    0.73204508821032
N         6.81756643489825   23.44955343990343   -0.24632306404378
C         7.98945387028158   24.06668261517013    4.55163212054285
C         9.54289913437286   23.71669569706744    6.13072973317368
C         8.32183859249048   23.66677648823168    6.73322122706266
C        10.27248121479821   23.97306453997569    3.70028078246219
C        10.79164379893822   22.56630886655625    3.40829328207105
C        11.39318589814286   24.98956669627957    3.90417597192034
C        10.88435498407270   23.59350848065283    6.76471653522499
C         8.01829654877083   23.47415773878517    8.17806006112510
C         5.93671465902272   23.80034213147626    5.83946513455299
C         5.47931044738636   22.35425494665548    6.02218453275092
C         5.35395940884780   24.74513193355208    6.88758158654131
C         7.65746340221068   26.13980603418911    2.41763833251332
C         6.36982034889423   26.10377464907360    3.03425477536668
C         5.10513630500571   26.58622502216379    2.35570705336133
C         4.87636716230702   28.10098766746958    2.46719109677037
C         5.76470511507816   28.96686285397762    1.57391110117266
C         7.22860721888279   29.03737221105048    2.02598243377765
C         8.19455933718785   28.24072850534015    1.15139418594107
C         7.87475249487658   26.74216420731624    1.04895819812434
C         6.19004670960071   23.72257390331225    0.92410737550148
C         4.71077743181342   22.89098040488374   -0.55149657867634
C         5.92301314973706   22.94477434729384   -1.16874104135972
C         3.95319772664067   23.33165936424223    1.83382519279680
C         3.73066197692355   21.89964925068487    2.31928851483683
C         2.64056152377449   24.05090153582355    1.52812144673459
C         3.40489799599720   22.46451056306630   -1.12576195087175
C         6.25377780561352   22.59182386842890   -2.57693061125868
C         8.26158776348699   23.52265119221514   -0.35815071134929
C         8.88424409674313   22.12790699571447   -0.30499326178669
C         8.73262197427497   24.32431747632254   -1.57013018877643
H         1.96770552283027   23.43083105969261    0.94334287172825
H         2.82853730111845   24.97564041378081    0.98819779299608
H         2.14060435546793   24.29593058201091    2.46221816924747
H         4.69149707337396   21.44737523206238    2.55341974803816
H         3.23185101544202   21.28774365828094    1.57242435130168
H         3.12087403320096   21.91003049329055    3.21911695886059
H         8.20569783888090   28.66720367082731    0.14449221015570
H         9.19939451590249   28.35662290381933    1.56700813868811
H         6.99964302043829   26.58795031202004    0.42095280709429
H         8.72594440885587   26.26939095889405    0.55506492476120
H         2.75378507918468   23.32286407692265   -1.29322631957243
H         2.89141544055037   21.76243183925038   -0.47362989931128
H         3.56747457205494   21.97518851012945   -2.08262491007356
H         8.69364390754568   23.73667286306339   -2.48244651091271
H         9.76380535735237   24.63366155923725   -1.41686292794823
H         8.12304857902947   25.21564498429926   -1.69727210391579
H         8.61859697177726   21.52805844232234   -1.17141163125719
H         8.53997745476801   21.61626247340244    0.59070380652148
H         9.96714369431163   22.21308874992343   -0.26396086758524
H         6.43507468882393   23.48800795159593   -3.17092472158956
H         5.42188586072231   22.05487900279046   -3.02540885629126
H         7.13295900906135   21.95497743482695   -2.63381577638742
H         9.67609000624644   24.28392210427463    2.83139338168955
H         9.94643814729548   21.90225477428528    3.24285765806095
H        11.39011967879335   22.17168305736893    4.22508443436724
H        11.40331737252781   22.58193888493556    2.50994139352343
H        12.13679085310162   24.63812492381723    4.61312489395292
H        10.98553342756024   25.93367950923436    4.25901010815937
H        11.89117454860647   25.16786077647278    2.95439845540883
H        10.78122047982288   23.17503283618553    7.76273908514403
H        11.36191152734575   24.56963996446344    6.85763290252720
H        11.53870839685894   22.94109036161235    6.19251323026754
H         7.75414970583522   24.42143682576806    8.65003367771577
H         8.89362342306110   23.07865807058906    8.68739501307935
H         7.19978162037223   22.77434212989671    8.32440238685667
H         5.59077752092343   24.12646537454840    4.84868152839768
H         5.78911774086665   21.94352573955903    6.97948425044800
H         5.90306626870880   21.74407623015494    5.22790962309371
H         4.39532941935791   22.30305713475968    5.96041634141040
H         5.82262439581512   25.72407860316209    6.81395003833294
H         5.48709511059820   24.36594850253643    7.89631233805551
H         4.28784673445926   24.86241529422461    6.70977873111280
H         4.25081006901309   26.10747510589743    2.84052211371708
H         5.09257031022961   26.29865384369146    1.30501638940876
H         3.83444235352971   28.30036944744781    2.19806405332614
H         5.00730855882602   28.40835394985811    3.50767810796483
H         5.34406617375599   29.97609404413491    1.57549958456862
H         5.71055996425470   28.60136260576930    0.54714807772826
H         7.56071756734996   30.07896997900265    2.01761319280716
H         7.30337710559522   28.68278717029681    3.05358232856502
H         4.47319519481533   23.86820081231638    2.63832926845690
H         8.56736940383957   24.04720475635782    0.55666567818001
H         8.48677105510331   26.39677090724684    3.08181521217411
H         6.34951856614824   26.34571574348130    4.10005582511651

