85
CSD_code = PIPBOH | q = 0 | S = 0 | Stoichiometry = C40H36ClO5P2Re | MND = 6
Re        0.80289893519475    4.70629870238239    8.44791910783145
O         0.00409785699407    4.95283881490051    9.88777291976774
Cl       -0.54615936128581    2.89577361536546    7.82414563465858
P         2.17204723466657    6.76088191573469    8.98602422003340
C         1.10176060622566    8.20744525330819    8.74412021053344
C         1.04864678329438    9.24748895778219    9.66755920097233
H         1.69278356599856    9.23105244116972   10.53525938067240
C         0.17382858109744   10.30106635100325    9.47262963682415
H         0.14260000153882   11.10980265734293   10.18793388388721
C        -0.66466451065742   10.31229067610046    8.37011173279136
H        -1.35571869168488   11.12965963069963    8.22617443567936
C        -0.62624973704794    9.27492735306402    7.45363278561802
H        -1.27614509922509    9.26360031931601    6.59365673558083
C         0.25852967510451    8.22421860954701    7.62843986024751
C         0.29860813701915    7.04473129171697    6.67021358978683
H         1.39201887386493    6.85373199851961    6.42474426596703
O        -0.25186404304533    5.93329568408190    7.19627500953863
O        -0.33492595699174    7.42511849722905    5.47233819629358
C        -0.47066090303255    6.36186048501873    4.55237843273436
H        -0.98010953052543    6.77866307785776    3.68593493798512
H        -1.05889576315323    5.54797330817763    4.98221628637425
H         0.51231494484015    5.97360799450930    4.25826295473013
C         3.67025635839864    7.08447060128192    8.01558043018466
C         3.77444879687373    8.14278000629713    7.11981777440117
H         2.94395639926030    8.82362526631646    6.99166460956363
C         4.94237854038041    8.32017851962986    6.39778907254922
H         5.02102412064313    9.14214212730909    5.70186478136311
C         6.00758554360516    7.45037295152820    6.56586475433861
H         6.91598106535882    7.59403219390947    5.99984745282093
C         5.90713282338712    6.39476862308108    7.45992350877956
H         6.73552913791283    5.71414207534259    7.59476974790062
C         4.74166423852043    6.20867664136984    8.17900280870995
H         4.65294019931780    5.39161058741077    8.88202421979914
C         2.73975685973844    6.95133252490347   10.70419099076533
C         3.96247603133888    7.51981493191092   11.04330724577700
H         4.63470279809885    7.86905984454174   10.27286043212563
C         4.31733541068474    7.64461323500030   12.37560940929550
H         5.26764236097593    8.08811276902356   12.63548770997500
C         3.45966264824284    7.20847296708415   13.37180673554251
H         3.74301449612598    7.30879062165302   14.40923370193766
C         2.23782903116873    6.64486783621709   13.03664008870544
H         1.56771063354077    6.30464799268306   13.81186582091713
C         1.87780178889128    6.51505789485917   11.70830612400947
H         0.93459479047450    6.06501834204160   11.42346215438689
P         2.05097452111449    2.73719815173559    9.19187487399473
C         2.23427288341904    1.63825175317439    7.76016634250866
C         1.94324715211886    0.28160393051635    7.86472773727023
H         1.61765469166975   -0.12158217217178    8.81183058657649
C         2.04482604867785   -0.54118207345100    6.75853044571993
H         1.81493431304227   -1.59223900919290    6.84915762673480
C         2.42345098427926   -0.01222452881069    5.53692890420739
H         2.49471681003053   -0.64864561128586    4.66760238070796
C         2.69541969696822    1.34000204231522    5.41893879089167
H         2.96848352338902    1.76650722928574    4.46740958567916
C         2.60563420073027    2.17346374645327    6.52205644649364
C         2.88476872619443    3.66785293524333    6.38756874572444
H         3.86436107277365    3.88351979599640    6.89885543000810
O         1.91910613503517    4.42075241553176    6.97141069600178
O         3.03818402818199    3.95828268690265    5.02111682831326
C         3.54617300354868    5.24101617044621    4.75316793846222
H         3.58152331480184    5.33139718220329    3.66930940159097
H         4.55443757891288    5.35741964615998    5.17200768208987
H         2.90357781467796    6.02693181871147    5.16430970039022
C         3.75566519213359    3.00008159466719    9.77737063847491
C         3.88969462841342    3.76782127184599   10.93299766140884
H         2.99400120392276    4.12830278240460   11.42155484877604
C         5.14330934765497    4.06360695065207   11.43206340548733
H         5.24014053457670    4.66318133665714   12.32477885103645
C         6.27359484708293    3.59643005789094   10.77682812825275
H         7.25542109159802    3.83265390666919   11.15924676685656
C         6.14489718480456    2.82383372887330    9.63418117685096
H         7.02586316184874    2.45291698956612    9.13064755190628
C         4.88969708067967    2.52152696016010    9.13166813296585
H         4.78958247953644    1.91337713157123    8.24271040771879
C         1.36575945306574    1.75522336256450   10.55356807740979
C         2.13731467151405    0.76257317727600   11.15522664417831
H         3.14339203851292    0.57429352257749   10.80459289691635
C         1.61346692773208    0.02422322773379   12.19972365578901
H         2.20864291857732   -0.74961104735453   12.66237645373578
C         0.32787197430009    0.27761428597199   12.65302930188934
H        -0.07740579517237   -0.30320048771080   13.46849547700112
C        -0.43208795604063    1.27633666012336   12.06680828038584
H        -1.42957262497441    1.47789406308656   12.42636497304494
C         0.08284631861167    2.01942228183189   11.01843565934516
H        -0.49760685007286    2.80585594495874   10.55449787484899

