66
CSD_code = PIPGED | q = 0 | S = 0 | Stoichiometry = C28H33AuClO2P | MND = 2
Au        1.07800318605205    3.60463806781793    9.49657499987879
C         1.00648327677717    0.40673292323904    8.47053953797567
C         1.11723246874195    1.00776829056818    7.06969659304024
H         2.06756406217073    0.75086116571259    6.60668873080010
H         1.01929982197248    2.09339217487561    7.10012100791460
H         0.32126410088417    0.61738123514261    6.43747841348755
C        -0.43021735316583    0.56322512117084    8.98179737796220
H        -1.11255991912275   -0.01969046134802    8.36573966878615
H        -0.74167708533946    1.60739660862198    8.94516857061758
H        -0.51277704996504    0.21094842486822   10.01061003664480
C         1.34148014450039   -1.08228554325129    8.41551639377091
H         0.74393085325093   -1.53764186462579    7.62590326551456
H         1.08870876076654   -1.58053319100917    9.34800923664719
H         2.38689310464810   -1.26365121473362    8.18081602078851
C         3.82813237182087    1.67982979747128    9.24707076546940
C         4.61522253170060    0.40206670247066    8.96980298919730
H         5.63995024348803    0.67389045539133    8.71748336062217
H         4.20349124164737   -0.14500058093183    8.12490378537565
H         4.65575104413638   -0.24702964623444    9.83984172860842
C         4.38710753289638    2.37890633141207   10.49099574225890
H         4.36053095434321    1.72064986728337   11.35896736780333
H         3.80714014289226    3.27529292403058   10.71738208201579
H         5.41990291355326    2.67857416427659   10.32173687579464
C         3.97524089961447    2.61784665874798    8.04680110330941
H         5.01635721545169    2.92291994368400    7.95066287594200
H         3.37228002863490    3.51838717231444    8.16646714315886
H         3.68311443883212    2.13393102933810    7.11898223871595
C         1.96130106375200    0.60686715456228   11.23756292496066
C         2.48479117213242   -0.68301324152810   11.34299677987939
H         2.91849567954819   -1.15858246101970   10.48006967264568
C         2.46341444760027   -1.37100086288498   12.54060895003134
H         2.87378238392599   -2.36863599369547   12.59328971501908
C         1.91772783888694   -0.77918930747461   13.66718128868399
H         1.89534757809478   -1.31038001777815   14.60671714560013
C         1.40763496025348    0.50132632644563   13.58149980352609
H         0.98757561163421    0.97848986264321   14.45527177375156
C         1.42173457687786    1.20743766759376   12.38128259796570
C         0.87050776392096    2.58083793030150   12.41953292962456
C        -0.47788392738447    2.81443032832248   12.16918505468915
H        -1.11554910924812    1.99307894551174   11.87461106710649
C        -1.00150183802189    4.08790086428338   12.30826826940904
H        -2.04884696397967    4.25923737268233   12.10874949940737
C        -0.18888915244163    5.13478857246332   12.70852713580861
H        -0.59863015162587    6.12675985854211   12.82045094239757
C         1.15103917467679    4.90725117177713   12.97097916852768
H         1.78831496577689    5.71790289170683   13.28910144455330
C         1.67830120499578    3.63665478248961   12.83104143600448
H         2.72099342134432    3.45442371570811   13.05026943443255
C         0.40763128206188    5.55778889887637    9.11365517950534
H        -0.32485100987784    5.91091711122893    9.83379468918615
C         1.64956843708415    6.31636367668570    9.19942121921659
C         3.13893903300361    6.96564120300926   10.96197236715079
C         4.28601915352669    6.34747828633984   10.48048246884393
H         4.21692683670454    5.63211849618501    9.67649574073419
C         5.51642389054571    6.67425865417888   11.02215671290859
H         6.40683588539745    6.19608107873553   10.64028658498552
C         5.61331490572027    7.60147004023554   12.04458054499879
H         6.57749103750605    7.85079665073479   12.46202381779146
C         4.46708000802685    8.21132080671857   12.52748858530571
H         4.53395636626127    8.93833437526560   13.32364181491287
C         3.23358082364675    7.89907728345977   11.98967358439867
H         2.33092099871436    8.36833518415249   12.35041946283906
Cl       -0.31993511968418    5.70807205130794    7.48730001811914
O         1.87599214946809    6.64093881919688   10.52996188173888
O         2.43273500631164    6.59588847360317    8.32647567670536
P         1.98515968375229    1.51402679317570    9.64841470456559

