47
CSD_code = PIPNIN | q = 0 | S = 0 | Stoichiometry = C16H24O6Zr | MND = 11
Zr        8.26929444412615    5.12401420741364   10.15839173208943
O         9.14203294325064    5.43118184182690    8.21654579017197
O        10.39502355405977    5.07652859232928    9.96190011886021
O         8.73982327509813    3.09446210791674    9.45842974295329
O         6.82318200241409    4.01734083846923    9.03725501985694
O         8.89914233268395    7.22566252180756   10.19026664297285
O         6.92928026952697    6.65240267122842    9.48714552364678
C         8.70298351996439    4.04804785082734   12.32438025014964
C         7.38019678745940    3.66504691356202   11.96362624784255
C         6.57130929888594    4.83169766949321   11.96670989591692
C         7.38779945481849    5.93370970013679   12.33992138031481
C         8.70736228806408    5.44961599335227   12.56233501454536
C         9.87111152449661    3.11317213541188   12.49160497231069
H        10.77974958775545    3.67661891594891   12.69158668618714
H        10.02367327883068    2.52622368955288   11.58291827452382
H         9.69856092773071    2.42477532459318   13.32220791826337
C         6.90201896880459    2.24952935339752   11.77684719970196
H         6.50940834135385    1.85500452474191   12.71807491311456
H         7.72234566800138    1.60772168306599   11.45828796925145
H         6.10867223491344    2.19625150945722   11.03057768807636
C         5.09666598967063    4.90645784970201   11.67077019973652
H         4.58575171807104    5.50471081579380   12.42616482698551
H         4.65616077130251    3.91173718263557   11.67036959989003
H         4.92629363960921    5.36211258804443   10.69054286696858
C         6.88202099604590    7.32833646876543   12.59865994897547
H         6.05012829628888    7.56323489951260   11.93469525442945
H         7.66748470111634    8.06758603965726   12.44401605091013
H         6.52984286182881    7.41963535932334   13.62992489859503
C         9.89915161359567    6.24470354440873   13.02725367035478
H         9.63412365957367    7.29142041176320   13.15766570683583
H        10.70863257161693    6.18261738820481   12.29554034268457
H        10.26312965187701    5.86403348273493   13.98376661271984
C        10.28826843630675    5.29851873768971    8.72903147474567
C        11.52443731121512    5.41437856928006    7.86945475286671
H        12.07295982472547    6.30524836445365    8.16894163375003
H        11.24722342852667    5.48479659142037    6.82172703447017
H        12.15941389189231    4.54843403352462    8.03984772959666
C         7.66036348790872    3.10572937824529    8.81120435066065
C         7.36907974653074    2.03895382122979    7.78112521828480
H         7.98180835904662    1.16198003347739    7.96959021153932
H         7.60937715145614    2.43991469916167    6.79774648632410
H         6.31202983709915    1.78786755918623    7.80179325524963
C         7.83824911480836    7.51836063453282    9.58076451347138
C         7.65167681895652    8.88910429366554    8.97263582937750
H         8.31924223513071    9.60164858182880    9.44836073746484
H         6.61509121326827    9.19818888951366    9.07451454146629
H         7.89092197029273    8.82708173770424    7.91237927088724

