137
CSD_code = PIPPAH | q = 0 | S = 0 | Stoichiometry = C64H64FeN8 | MND = 6
Fe       11.54645250806683   -0.00000881294783   -0.00000248622274
N        13.22177102480207   -0.42093999801223    1.00844311478225
N        10.47269857197457   -0.33027187358623    1.66938292978306
N        11.76933324801952    1.92646997146003    0.48104491246413
C         9.08013692315436    4.09603134014211   -1.00472370311326
C        15.95222343624409    3.14534087753305    1.95492591019766
C        11.44832628905728    4.19749724916564    0.62560730657510
H        10.98223532684303    5.15259656686882    0.47111609485536
C        16.86643835168967    3.87804047757295    2.69763978779714
H        17.73712343521281    4.28992814156861    2.20540322627091
C        16.68652053438138    4.09232587658412    4.05454798050979
C        12.76520966611452    2.49048416165940    1.21893841789332
C        10.95715758479293    2.95103435480764    0.10665506177302
C        16.17286262096897    2.92732538425145    0.48658775637796
H        17.06669765658730    3.44812825148603    0.14949120551754
H        15.31619018318504    3.29530099277549   -0.07838709084562
H        16.29170994602827    1.86239296114383    0.28283176619429
C         9.43139921430393    4.81769089846610   -2.14664643112315
C        14.96282958518649   -1.56321176810619    1.98009612415605
H        15.57977696738327   -2.39741068354578    2.25708135401701
N         8.89365851186066   -1.07127572018183    3.00944189610380
C        13.83780458458115    1.81967441636421    1.79779829603351
C         7.37510720363720    5.71168058146162   -0.51346914045555
H         6.57378431426740    6.05889420816793    0.12479236915444
C        12.57374800281003    3.91046474095881    1.31992294358594
H        13.22276269173112    4.58032188261091    1.85266131720742
C        14.63127564679832    2.81916709233634    3.94726780372366
C         9.81191420098531    2.84809270361876   -0.67282834827442
C         8.04731798071629    4.54379181791608   -0.18317554297156
C        13.77321938076742   -1.65178037528870    1.17962293064075
C        14.82654381299269    2.60903325822776    2.58012753232524
C        14.02727720196615    0.44605880114800    1.68412166306484
C         7.67824807763524    3.75753002645922    1.03916241860601
H         6.88045122733844    4.24882857087579    1.59150768164373
H         8.54448332292525    3.64460418479216    1.69025478788445
H         7.34953650802081    2.75766719103293    0.75637919716413
C        15.12258242566726   -0.25592629800677    2.29225175668524
H        15.89630827959341    0.20471155850935    2.87800198319236
C         9.30640507047719   -0.93026107362401    1.73463397881654
H         8.74859567462659   -1.26721111339850    0.88658943600406
C         8.74219559966633    5.97990728917059   -2.45127537879493
H         9.01109831847288    6.54179490287342   -3.33562582483467
C         7.71026874289684    6.44072134864944   -1.64381090024618
C        10.83273050232676   -0.06707402453365    2.95395728740815
H        11.75544040506412    0.42344369925826    3.17862720051569
C        15.56085537643901    3.55515625310928    4.66370203085394
H        15.40731423228483    3.71566209447380    5.72221058601980
C         6.98005968651669    7.70113323731904   -2.00198501574647
H         6.23355078056117    7.94607326687817   -1.25047273567391
H         6.47968508157861    7.58930027828677   -2.96366156020308
H         7.67670727803043    8.53461337695288   -2.08512885050740
C        13.42860618687172    2.24368196951190    4.63284032072303
H        12.51721680786438    2.54902116541159    4.12035735900223
H        13.37838990259736    2.57489320012829    5.66750649176941
H        13.47642606720439    1.15449776971608    4.61973461287982
C         9.86344959639628   -0.52160252966991    3.79792485405946
H         9.78452564937437   -0.50120417157338    4.86549635471362
C        17.67195989788166    4.88936239536309    4.85588977578419
H        18.53412814201253    5.16326673224425    4.25277877339696
H        18.01559659331594    4.31696951066039    5.71650428388695
H        17.20653689278907    5.80192416418858    5.22808415344367
C        10.54700914526860    4.32606888811036   -3.02030134928695
H        10.68090676297976    4.97641346343875   -3.88180133227774
H        10.33755148362342    3.31451170350486   -3.36700329478353
H        11.47797470160093    4.29058270101101   -2.45464858771443
C         7.67609141314680   -1.68116662904791    3.46153267311272
H         7.11728244906091   -2.04732237568623    2.60248283331246
H         7.06335952335809   -0.95686547824303    4.00240836152929
H         7.89436133693605   -2.51890193904487    4.12695655282875
N         9.87112711580055    0.42092747384806   -1.00842796926966
N        11.32358114906172   -1.92647619100410   -0.48106772646624
C        14.01275171506145   -4.09604583597436    1.00474298196640
C         7.14069277886333   -3.14533677906532   -1.95496368926842
C        11.64463720902538   -4.19749049920860   -0.62570418981375
H        12.11074910574910   -5.15258407371868   -0.47124159067859
C         6.22648024811862   -3.87803656609330   -2.69767933348316
H         5.35578363579567   -4.28991012915220   -2.20544756225993
C         6.40639353364693   -4.09230854927158   -4.05459057624484
C        10.32772807940728   -2.49048434175817   -1.21899908158863
C        12.13576404993458   -2.95103798015492   -0.10668689628550
C         6.92006034969299   -2.92733575255266   -0.48662232470222
H         6.02608904444412   -3.44793635825321   -0.14957778821962
H         7.77662539568269   -3.29554671857513    0.07836428778982
H         6.80146775540866   -1.86238569518421   -0.28282173157640
C        13.66144540145608   -4.81772224107045    2.14664141481975
C         8.13001547268872    1.56318896816797   -1.98000243277068
H         7.51304352807624    2.39738271530127   -2.25694921008355
C         9.25511440719114   -1.81967725678169   -1.79782656928549
C        15.71780759468161   -5.71168176307649    0.51353621156855
H        16.51917044855312   -6.05887344933504   -0.12468676684674
C        10.51921384603492   -3.91045818438140   -1.32001833634585
H         9.87022054326004   -4.58031045564449   -1.85278860950554
C         8.46163354159329   -2.81914272781867   -3.94730581015904
C        13.28098090402321   -2.84810397355353    0.67283889461775
C        15.04560823777083   -4.54378947354536    0.18323210307384
C         9.31965850987411    1.65176319856523   -1.17957796252918
C         8.26637202979592   -2.60902473232675   -2.58016324488714
C         9.06561397470075   -0.44606970805561   -1.68409913870583
C        15.41473414955095   -3.75750466801730   -1.03907417599482
H        16.21254271526542   -4.24880328274125   -1.59140231322036
H        14.54852272464690   -3.64455395807697   -1.69019270817703
H        15.74345069839704   -2.75765174323226   -0.75625938935310
C         7.97027074270052    0.25590690072427   -2.29217313382480
H         7.19652884340309   -0.20473395384253   -2.87790038684109
C        14.35064501540154   -5.97993674834469    2.45128611775537
H        14.08169521919338   -6.54184651902317    3.33560764902538
C        15.38260419317539   -6.44073782450426    1.64385581325029
C         7.53205147589322   -3.55512648595729   -4.66374366200691
H         7.68558847120283   -3.71562015555983   -5.72225501585004
C        16.11281679078839   -7.70114091133354    2.00205253356973
H        16.85922441337219   -7.94617286337282    1.25046945350540
H        16.61332028936656   -7.58923186713245    2.96365437577100
H        15.41615453417518   -8.53459078859217    2.08536591363111
C         9.66429331610822   -2.24364208689899   -4.63288473459870
H        10.57568099636406   -2.54875274370037   -4.12026562821988
H         9.71464046462104   -2.57504669579107   -5.66748175100079
H         9.61632227581239   -1.15446162060852   -4.62000044137056
C         5.42094389394590   -4.88932856925621   -4.85593629640944
H         4.55870316215265   -5.16309998841277   -4.25286832896233
H         5.07742925110171   -4.31699434464550   -5.71663836546909
H         5.88631840726333   -5.80196912841636   -5.22799739074242
C        12.54578434135468   -4.32612588847172    3.02024559847906
H        12.41188230700030   -4.97645801715808    3.88175415144554
H        12.75519423012516   -3.31455456608868    3.36693269897866
H        11.61483503932725   -4.29068524832628    2.45456162060494
N        12.62017938469869    0.33028859112316   -1.66938346171799
N        14.19925515683524    1.07126152421795   -3.00941909453864
C        13.78651297462693    0.93020534716464   -1.73461432064893
H        14.34435323125508    1.26707402847237   -0.88655715616864
C        12.26014488558359    0.06713160221406   -2.95396588527735
H        11.33741543558226   -0.42334117157323   -3.17865126291224
C        13.22943027629111    0.52167273571531   -3.79791988166304
H        13.30834715512423    0.50131780778021   -4.86549266230701
C        15.41684323377909    1.68112744287404   -3.46148996372721
H        15.97562465266098    2.04730976715932   -2.60243382402433
H        16.02959205401616    0.95680762366721   -4.00232253262373
H        15.19859824291548    2.51884246189729   -4.12694738438682

