85
CSD_code = PIPQEM | q = 0 | S = 0 | Stoichiometry = C38H38Cl2N6Pt | MND = 4
Pt        7.79738357092350   -0.12887622765579    9.13291240244934
Cl        8.88538819803879    1.29158973537998    7.67198118018332
N         7.10792837795763    1.41002611997797   10.10680298783629
N         4.61763571941811    7.03967447638664   13.52870452297803
N         2.02427877799793    4.69174339267537   14.30190025402840
C         5.79668470893283    1.65560913235865   10.15817641413261
C         5.27074304847836    2.74354346535564   10.82295375608605
C         6.12615983215223    3.63518075587039   11.47170290638865
C         7.49328830508042    3.36211385363703   11.41257511974498
C         7.93825737321011    2.25057708829812   10.72789847717241
C         5.60752052754636    4.80911535201914   12.18224644184181
C         6.29092742997763    6.02623443853899   12.16319662679507
C         5.74725580659743    7.09872873459328   12.85101421452432
C         3.95527899047382    5.88455336683625   13.55423508946760
C         4.41538680762443    4.74580645170463   12.89448127574962
C         2.69648378532955    5.84289952651467   14.31059147236059
C         2.24761248628090    6.96766531287508   14.99467485229686
C         1.05466126140775    6.91970475050795   15.70925094862213
C         0.36711901625738    5.71020696558787   15.68899528387512
C         0.89431532040971    4.64240205978706   14.97573624499874
C         0.57080802588318    8.14918184963343   16.45580580102092
C         0.36913021607791    9.28910431303036   15.44796744816083
C         1.63435610122579    8.54875511478847   17.48784878948926
C        -0.75105928497872    7.90744484663582   17.18847199594916
H         5.15214694305044    0.94577736531490    9.65209661063140
H         4.20501026035292    2.90829324311492   10.82412888704131
H         8.20384811362784    4.00241290584054   11.91111353252020
H         8.99607476265688    2.02284691814856   10.66091804498461
H         7.20769003736479    6.14010666695543   11.60629681962876
H         6.24400396986143    8.06061336088683   12.85945552383075
H         3.84313360071410    3.83607088063842   12.97349945351187
H         2.85370677282953    7.85705994368163   14.94616265972713
H        -0.56501081971410    5.57816083959691   16.21205256354834
H         0.37672165807170    3.69171057413919   14.94508144316234
H        -0.37081418824570    9.00686721030781   14.70155122417524
H         1.29586348367648    9.53138948190916   14.93543973448090
H         0.01778508252618   10.18169680410484   15.96094782974083
H         2.58179795064084    8.78018677978035   17.00935611323977
H         1.79749221739116    7.73798888192266   18.19518585290869
H         1.30617273196867    9.42674121663636   18.03985212799155
H        -1.54345974466975    7.64434007687260   16.49124704301719
H        -0.64986504295105    7.11679888315087   17.92866268650223
H        -1.04906947981092    8.81619281958532   17.70714008938931
Cl        6.70937182663176   -1.54908649144460   10.59375201248697
N         8.48681681104270   -1.66783264369427    8.15904757533455
N        10.97685969982312   -7.29716736953926    4.73649001403212
N        13.57019796000959   -4.94919938714961    3.96333931030610
C         9.79804701955371   -1.91345846747379    8.10767176683353
C        10.32396016975273   -3.00132572742822    7.44276013622832
C         9.46851515279131   -3.89283911575278    6.79388958171638
C         8.10139599068952   -3.61972706484887    6.85303019328107
C         7.65646313345654   -2.50825248082602    7.53782776213896
C         9.98710679891697   -5.06672015193880    6.08322533801773
C         9.30365647218332   -6.28381449239223    6.10217047004067
C         9.84726786541573   -7.35625627877690    5.41422262449283
C        11.63925188073615   -6.14206356557675    4.71105055350482
C        11.17921694317053   -5.00337562743051    5.37095644491911
C        12.89799808474882   -6.10035885065691    3.95461598644031
C        13.34683232131307   -7.22507767468823    3.27043075025149
C        14.53972842946304   -7.17705710475283    2.55576485684766
C        15.22726326880920   -5.96755564317123    2.57605316745200
C        14.70011323821308   -4.89980441677649    3.28942727293498
C        15.02354806336014   -8.40648416659942    1.80910529553451
C        15.22549102943537   -9.54639205352892    2.81690649418903
C        13.95986201368469   -8.80614339926904    0.77723914779005
C        16.34526681455228   -8.16462835671250    1.07621115918904
H        10.44261356849149   -1.20366776189979    8.61378387765490
H        11.38969412750262   -3.16609793210665    7.44154796557456
H         7.39081598892032   -4.25996106101238    6.35443619325614
H         6.59864927102432   -2.28050456716362    7.60486583040157
H         8.38690859923252   -6.39771286733024    6.65908888025793
H         9.35049009153228   -8.31812482708362    5.40570668899168
H        11.75149470019911   -4.09364845565383    5.29200873287218
H        12.74075137503940   -8.11448241492987    3.31892958183416
H        16.15935276704419   -5.83546539599762    2.05293474467629
H        15.21770752638931   -3.94911459437617    3.32011967165367
H        15.96555251746086   -9.26409797710788    3.56318502307134
H        14.29886578418927   -9.78873304028559    3.32960441882043
H        15.57680378739298  -10.43896311904009    2.30386650296102
H        13.01252745602986   -9.03769288805165    1.25588609128177
H        13.79651856908238   -7.99537848935916    0.06994844391531
H        14.28804741439393   -9.68408099085351    0.22515988067352
H        17.13778041812091   -7.90151305869489    1.77330342982947
H        16.24388533689678   -7.37394849554838    0.33608180259393
H        16.64323700165744   -9.07333126100364    0.55744157955729

