111
CSD_code = PIPRUD | q = 0 | S = 0 | Stoichiometry = C47H59ClOOsP2 | MND = 5
Os       -1.80878989882133    7.00221447097213    3.52703077297975
Cl       -2.30334065396411    8.01637172557225    1.51828244506020
P        -0.01437067215806    8.57100230935067    3.73004266473707
P        -3.92372950716698    5.90678877367414    3.27022045536886
O        -1.61684477603770    6.37964997816174    6.46210276702779
C        -0.60915411601665    5.45364411310345    2.92345477930129
H        -0.46148597680710    5.55927744051290    1.84222442345145
C         0.01067326919294    4.43420818355410    3.51984950260073
H        -0.11568610475836    4.26918624061717    4.58411549806028
C         0.89585429018804    3.47135815670944    2.87275600511548
C         1.47841524632898    3.71835764414205    1.61345449013556
H         1.22482924627133    4.61684700688918    1.07210743573080
C         2.41354812164479    2.86543509947900    1.10126002833596
H         2.90325172074070    3.09296117822088    0.16431369192112
C         2.79901255154311    1.70469528970321    1.79397978187892
C         3.88364344196845    0.91009367535081    1.34344611972310
H         4.35269902265543    1.16071416016117    0.40247325624180
C         4.37234732889603   -0.08467919909452    2.12387231757446
H         5.26218712986922   -0.62842397298447    1.83997566254110
C         3.71981615781444   -0.45236801247918    3.33071721074292
C         4.30261931473154   -1.41181341022764    4.19244879231128
H         5.24305840194985   -1.86052099484881    3.90621570563862
C         3.73289581624965   -1.68583888078269    5.39451981814303
H         4.23059392114438   -2.31804611823804    6.11579143495836
C         2.44204469298983   -1.19610088859917    5.70430817464857
C         1.84266445555591   -1.49305022705868    6.95101884232225
H         2.41566457309729   -2.05043846682066    7.67807132582731
C         0.59230687578401   -1.04787140508648    7.23704271720101
H         0.15795669455079   -1.19649614310498    8.21519571960575
C        -0.20851427595492   -0.47469917480854    6.22009340059602
C        -1.56948580030220   -0.16620722472432    6.48352574238165
H        -1.92769158496119   -0.27480952376597    7.49752856851306
C        -2.39627176488792    0.24645531086951    5.49443972164613
H        -3.42677473841578    0.49863681897395    5.69943669953813
C        -1.94730706803022    0.26677924203565    4.14738335041841
C        -2.85235136372566    0.50441395939500    3.09849373563017
H        -3.88139204928348    0.72534387735049    3.34862229110028
C        -2.45713689082632    0.41403398367553    1.79073403032437
H        -3.15774614404666    0.59555590322723    0.98858342667108
C        -1.14724925169609    0.02966159126415    1.49570482496641
H        -0.85041240129202   -0.10914249050731    0.46663986356675
C        -0.24342026007061   -0.19376554105419    2.50154722043613
H         0.74347341921293   -0.54521088922096    2.24737962832177
C        -0.59296118746163   -0.02565748666615    3.85343637643254
C         0.32824927720695   -0.25870691074613    4.93604235358531
C         1.74367992305521   -0.40946801452065    4.75872837543483
C         2.50064257325739    0.15804470792072    3.68342041966360
C         2.13419794164716    1.37316194039733    3.00051230690607
C         1.22574309541465    2.29821866500168    3.53047488012339
H         0.79267794302431    2.11499842685628    4.50249923242724
C        -1.65376127048473    6.54500445793127    5.30926654819834
C        -0.65684147157465   10.14274275246823    4.52550414173550
H         0.19545259959793   10.80666959266642    4.70740479249827
C        -1.65582665443547   10.86170387714354    3.61998903712929
H        -1.15977889961633   11.35872715475846    2.78929993488376
H        -2.19755754261747   11.61845325935427    4.18681699482441
H        -2.38400696342505   10.16279363302334    3.20898204156023
C        -1.31388458430493    9.80138944038703    5.86182166792931
H        -0.62792080579112    9.28707001648328    6.53031820547885
H        -2.17488301121495    9.15107073965278    5.70731093485380
H        -1.65764566211777   10.70975500482392    6.35606830019099
C         0.75636499111124    9.24500786138588    2.16010202457878
H        -0.08286296728244    9.77598530947017    1.69279398178460
C         1.90570322648919   10.23006585175162    2.34829883327250
H         1.66486129338665   11.00986532520895    3.06699612646541
H         2.12109005251374   10.71225248633623    1.39480176637027
H         2.80903495586208    9.71677685475343    2.66826728219318
C         1.15796043466412    8.12925535897564    1.19767178696334
H         0.29631336500837    7.50936380184374    0.96706583280370
H         1.94262608383996    7.49879504368598    1.60510380943990
H         1.51559661855568    8.56535258110843    0.26517584069705
C         1.34743217363885    8.07008163366920    4.92623975515558
H         0.78020877746544    7.54433864047651    5.70588272117098
C         2.16720619882107    9.16994505651374    5.59785660810665
H         1.55003555814896    9.84722383689896    6.18115506894391
H         2.73813989426372    9.74949175861379    4.87961063488607
H         2.87431909708050    8.70080367266777    6.28134208877161
C         2.27212152204130    7.04180084075134    4.27855914259441
H         1.68833028422514    6.29900604107363    3.73821994491382
H         2.84949684617732    6.52702611098569    5.04471256567496
H         2.97363814033087    7.51943508452315    3.59889831416069
C        -4.37333905956662    4.64288040014951    4.58098594946900
H        -4.48897306061310    5.25735075093157    5.48424247364075
C        -3.21266974857716    3.68474726883044    4.82474249460793
H        -2.29828270378508    4.24175448966467    5.00324049645402
H        -3.04565879626486    3.03459285395104    3.97156121926775
H        -3.41830375607492    3.06508386557376    5.69552403350119
C        -5.66255607341326    3.85518297834529    4.37187303583474
H        -6.49851927029811    4.48732638913372    4.08384440423541
H        -5.92941858686808    3.35557757110114    5.30272275809708
H        -5.52432927562712    3.08936693370443    3.61417967783583
C        -4.30546138553782    5.19338281371026    1.58390539824674
H        -4.03658901645113    6.03277212002528    0.92826539077215
C        -3.35172969416994    4.03790750960153    1.28544088108505
H        -2.34162960800731    4.27380416179484    1.61581344101261
H        -3.33121221575804    3.83499662027055    0.21578869659450
H        -3.66805029834127    3.13056309964666    1.79437721555803
C        -5.74551911957468    4.78331020987794    1.27287340430145
H        -6.48130424812392    5.43817950052543    1.73030726878120
H        -5.94307878573483    3.76805486818134    1.60411256090363
H        -5.89650358034263    4.81034295356376    0.19409547920701
C        -5.29426386552616    7.15873065437349    3.56311292151866
H        -6.19896652607494    6.60163035641108    3.83739338344169
C        -5.59575161625842    8.05564622335091    2.36494082861966
H        -6.01450758859136    7.50372523910775    1.52846332185884
H        -4.69234879441739    8.55235169633361    2.01841711096011
H        -6.31305867978188    8.82327545541447    2.65601737039777
C        -4.87449319185545    8.03186945146567    4.74582956130940
H        -4.59454650358753    7.43551759579274    5.61376534123657
H        -5.68374822723421    8.70093097703227    5.03680424106431
H        -4.01907896304780    8.64719701488369    4.45770462405097

