82
CSD_code = PIQBEZ | q = 0 | S = 0 | Stoichiometry = C40H36AgClN4 | MND = 3
Ag        6.80124503831405    3.84267711670959   -5.51629138954257
Cl        6.78822080060517    6.42396954420481   -5.52090536083229
C         4.86662857594496    3.46826409587444   -4.48361793032894
N         4.56772293378215    4.19505495209056   -3.39141253008239
C         3.25340494681276    4.04667752881830   -3.04899826968602
H         2.81748565954010    4.54044552426817   -2.20482795942546
C         2.70799574444212    3.20339424943971   -3.95674116911764
H         1.70812782617680    2.83257562380666   -4.05555131578942
N         3.70680968689316    2.86905818910437   -4.83007638146926
C         3.55233348559071    1.95014655660512   -5.92643238252472
H         4.31483496838201    2.19118215368491   -6.67314942041441
H         2.56389864973329    2.09493751010103   -6.37203041301926
C         3.71663283345958    0.50531545273101   -5.45995687112999
H         4.70912877709693    0.36367700212570   -5.03836293678076
H         3.58929450852138   -0.17482530025351   -6.29761532157437
H         2.97787434756634    0.26218926062245   -4.69921297117477
C         5.48316111530682    5.06088222901440   -2.68239458409004
H         5.13754183499714    6.09027020800457   -2.78362545170063
H         6.44903549108136    5.02471124631700   -3.19617121265288
C         5.60676129955328    4.65229189411935   -1.23698158061186
C         4.92430333588929    5.36005984076531   -0.23097786057441
C         4.08068294212743    6.47699755507939   -0.48398695737473
H         3.93677242653233    6.82768723000386   -1.49387805187239
C         3.43619265851717    7.13066436416533    0.52201664812331
H         2.80090740223640    7.97470460151624    0.29611491986666
C         3.58669943973038    6.72380664500797    1.86232483971849
H         3.06896356608595    7.26122288950680    2.64293773435714
C         4.38014134839950    5.65973719760637    2.15568960968460
H         4.50841867514135    5.32899544987017    3.17660823843309
C         5.06043568832562    4.94743334770631    1.13460955589861
C         5.84851225731533    3.84592269656511    1.44464192271539
H         5.94399207863492    3.53906746874596    2.47712628646686
C         6.50645903834119    3.12252767991737    0.45712187268681
C         7.28596323560111    1.98439537749351    0.78638943710252
H         7.36002483849645    1.70278881683059    1.82719409300166
C         7.91813589358312    1.26393616178206   -0.17795622427265
H         8.50631161999613    0.39449068211268    0.07669755510336
C         7.80904887679480    1.65739000824500   -1.52627189265515
H         8.31599590859394    1.07771932953405   -2.28463834358998
C         7.07700293705758    2.75037975964757   -1.87998870716126
H         7.02121509313270    3.01796231536294   -2.93015229045109
C         6.38789284648620    3.52823701073793   -0.91064325552033
C         8.73776868465120    3.47154005368478   -6.54650363388819
N         9.03694641150129    4.19706627906462   -7.63946654991573
C        10.35075789360916    4.04633308593152   -7.98280970950674
H        10.78677276908595    4.53881055524922   -8.82768331567434
C        10.89553047422235    3.20277452947419   -7.07493301942686
H        11.89486432992791    2.83038507350116   -6.97668245357847
N         9.89686750420612    2.87060942094074   -6.20058986124472
C        10.05070738705645    1.95172857185568   -5.10410909457850
H         9.28830845313559    2.19327228009769   -4.35746991511756
H        11.03922338244945    2.09590335733796   -4.65848174069140
C         9.88552232861020    0.50696855889455   -5.57045984205191
H         8.89291697296613    0.36589502505195   -5.99197478013773
H        10.01250276758529   -0.17317513846751   -4.73275420813359
H        10.62408304352632    0.26332943062037   -6.33122912876994
C         8.12227001140446    5.06349070425415   -8.34882225399668
H         8.46915039856431    6.09254552938791   -8.24851209023589
H         7.15645253227259    5.02892609046088   -7.83486523064564
C         7.99804152394540    4.65413058710285   -9.79395418108685
C         8.68048542089835    5.36111416657581  -10.80054384413684
C         9.52458629439041    6.47788955517699  -10.54842322084102
H         9.66907307825160    6.82902321040075   -9.53876474013331
C        10.16885299060752    7.13092863390528  -11.55497513531094
H        10.80446827512459    7.97489112205951  -11.32969693519903
C        10.01768207803776    6.72352208831006  -12.89503681110629
H        10.53520104508572    7.26048053072279  -13.67610893223665
C         9.22390531950151    5.65947299440574  -13.18756370404982
H         9.09514978707032    5.32826682072551  -14.20827234735279
C         8.54384400107361    4.94781443297738  -12.16587689173982
C         7.75555941029800    3.84622145089624  -12.47507183746657
H         7.65982821228892    3.53874377995828  -13.50734920551082
C         7.09770489701311    3.12353221358224  -11.48697533927736
C         6.31809269766649    1.98524048937013  -11.81543303546195
H         6.24394525261509    1.70294082982491  -12.85604621728239
C         5.68592814574362    1.26549355404223  -10.85055546667221
H         5.09770607349862    0.39588862257535  -11.10456757289527
C         5.79494320549680    1.66000575003442   -9.50254274315776
H         5.28781893119955    1.08098323622987   -8.74379926138291
C         6.52704722168145    2.75321710175088   -9.14960379340851
H         6.58243345371788    3.02182098154891   -8.09963043728280
C         7.21644670923904    3.53015297492513  -10.11948519715228

