49
CSD_code = PIQHUS | q = 0 | S = 0 | Stoichiometry = C22H22N4Ni | MND = 4
Ni        2.14969149576205    4.33645117716098   11.24713742908842
N         1.25153177690149    3.05950043795689   10.22928799401519
N         2.99224084661226    3.05927854046192   12.31141644089188
C         0.32293013569666    3.64660108178964    6.66478704836112
H         0.13774396300371    3.10351674686873    5.75001912332819
C         0.60864535765013    2.94432346474646    7.82820159466856
H         0.70043991606439    1.87234640234055    7.77816446139770
C         0.85775129263208    3.62596637273633    9.01134307425739
C         0.91592940199837    1.84933889089673   10.65449496569605
C        -0.15873152693911    1.02747532352316    9.98954227144828
H        -0.70374376344791    0.47340334889745   10.75099122625266
H         0.27319541109228    0.30166871007916    9.30165296757533
H        -0.85814993747844    1.65834144969481    9.44687565517638
C         1.49201022836011    1.28953117489173   11.79665474366685
H         1.12596512808673    0.32165058357713   12.10231924375410
C         2.51479850403249    1.84866814200370   12.56544775316574
C         2.98048325747891    1.02523540738975   13.73920436116587
H         3.73737339414764    0.30330650686391   13.43460862909144
H         2.13635869930789    0.46679963347054   14.13825055400084
H         3.38742436839789    1.65566228998782   14.52581857391290
C         4.12070983100233    3.62590808029028   12.91543057326279
C         5.24056538695111    2.94436555929581   13.37140439590534
H         5.30713619015310    1.87267271686657   13.28925905417328
C         6.33410894980478    3.64665056813290   13.86075540686590
H         7.20086305187561    3.10342471701381   14.20691174572554
C         0.32292578591284    5.02630662769083    6.66478947615815
H         0.13773682568706    5.56939260278443    5.75002311362404
C         0.60863808176880    5.72858258672407    7.82820565870360
H         0.70042741825584    6.80056011012506    7.77817098984964
C         0.85774816091859    5.04693769492232    9.01134510687601
N         1.25152915946429    5.61340215814028   10.22929024334285
C         4.12071774325097    5.04699603940365   12.91541760429569
N         2.99224669266858    5.61362568437289   12.31140692795889
C         2.51480384845842    6.82423456580660   12.56544304119397
C         1.49200948089769    7.38337059264708   11.79665738616384
C         0.91592463092225    6.82356246136727   10.65449990999340
C        -0.15874235751052    7.64542233109013    9.98955314643882
H        -0.70375442601832    8.19949038846291   10.75100517524128
H         0.27317844152295    8.37123260930957    9.30166370435596
H        -0.85815995035503    7.01455433206643    9.44688766099172
H         1.12596274367265    8.35124918765552   12.10232604804451
C         2.98049433994116    7.64766363537630   13.73919991600262
H         3.73737892117314    8.36959730261585   13.43460238590064
H         2.13637037651551    8.20609350229237   14.13825550066032
H         3.38744456199832    7.01723442592576   14.52580742369404
C         5.24058194266270    5.72853902446701   13.37136969254885
H         5.30715948680545    6.80023017711866   13.28920001809067
C         6.33412245684358    5.02625520868332   13.86073052205841
H         7.20088427539653    5.56947942401505   14.20687006096401

