76
CSD_code = PIQJOR | q = 1 | S = 0 | Stoichiometry = C25H45ClN2P2Rh(1+) | MND = 5
Rh        5.44565414773931    2.60763973876456   10.32777342704933
Cl        4.30022098976395    3.14298802353494    8.45755148735953
P         4.77177564103974    4.39932029569282   11.60716146754687
P         6.29315328839583    0.57417356929475    9.64910978443388
N         6.48179911914714    2.92144072380193   13.05809877140460
N         6.96762647222200    0.95818979399450   12.23327792447282
C         6.35503232235740    2.12635590590727   11.98228171157792
C         7.19230503366895    2.25581066331747   14.03644172244097
C         7.49900452318674    0.98588444483848   13.50724434484405
C         8.20637071940118    0.05094790468899   14.24637846317827
H         8.44132597370055   -0.92292950390956   13.84783287578416
C         8.59901118644320    0.42100934452357   15.51902207309970
H         9.15244544842642   -0.27919305702839   16.12392247409200
C         8.29811059036925    1.67797930803991   16.04160192948517
H         8.62634192957280    1.92305569480677   17.03894409466667
C         7.59108255782745    2.61672005325572   15.31387667503475
H         7.36429571846539    3.58833649128927   15.72253672730611
C         5.97093374629136    4.26624991920377   13.05288196005361
H         6.79816965568305    4.96781642504528   12.89597737559894
H         5.49427733699063    4.50181734364122   14.00861298640230
C         6.95378712441925   -0.11823788859599   11.27894844050040
H         6.29761623846160   -0.91616225400616   11.64346477013532
H         7.95779114265961   -0.53368358949821   11.16053874075356
C         4.96972811107899    6.18949282795469   11.06437734670317
C         3.79641792128089    6.55200914205404   10.15536038549441
H         2.88827358480943    6.73001651570981   10.72554576925377
H         4.02673111755749    7.46348888690561    9.60727012966546
H         3.61850072351527    5.76005395152368    9.42851573128060
C         6.25557418228804    6.21250801015702   10.23259202520172
H         6.13967773162332    5.59487900125331    9.34215290602763
H         6.46685590344495    7.23006129517029    9.91113344775493
H         7.11528931106828    5.85530448549524   10.79985122281663
C         5.08591433565646    7.17942016638663   12.22230860193170
H         4.23467033086200    7.13105792228600   12.89333111636944
H         5.99478434976454    7.02743294242798   12.79936238010508
H         5.12456469652686    8.18670332735749   11.81103013721853
C         3.10028578764923    4.01912729036942   12.40756182000191
C         2.06794632802325    3.86886020759255   11.28798090296846
H         2.45380933566197    3.24040036847955   10.48322561839384
H         1.16369470810941    3.40476237619951   11.67810137071730
H         1.79088323109405    4.82735535924699   10.86098642469033
C         2.62897690680014    5.04798568226526   13.42898459460750
H         3.37366983473722    5.23375191130149   14.20083971020874
H         2.36934661879829    5.98915038491058   12.95229125401491
H         1.73183990301370    4.67267398007538   13.91951964085225
C         3.27106492805264    2.65356314126401   13.08528589903537
H         3.65370961465199    1.91542508367471   12.37108524337220
H         3.94072364742509    2.69613456597361   13.94267684487249
H         2.30470621023732    2.29847508829787   13.43969353707118
C         7.79406784412086    0.53559709659983    8.51372311040805
C         7.43152740470753    1.34512313148317    7.26822550099953
H         6.67562069961714    0.84801942244326    6.66825984133698
H         7.05155449298940    2.32763701111632    7.54949561684552
H         8.31395382045656    1.48451899007778    6.64740820115539
C         8.23733423818512   -0.87411589935290    8.13598951351334
H         7.52949346378771   -1.34159776835729    7.45701178691825
H         9.19583468138249   -0.81967119388797    7.62268090054674
H         8.36325682466019   -1.50875382584161    9.01172841273188
C         8.92472037868795    1.26011441021938    9.25201916370951
H         8.57450389962674    2.20842971641065    9.66434165772943
H         9.34801074430354    0.66199267305413   10.05563501536356
H         9.72721614411518    1.47975210339052    8.55113138465278
C         4.93478298105509   -0.65898756351303    9.20974585967301
C         4.48220459352780   -0.38550360985412    7.77615239246472
H         5.20259464360291   -0.76444323439924    7.05575827454798
H         3.53363891483694   -0.88558945534130    7.58828781206712
H         4.33815660169944    0.68181587248482    7.61092800178690
C         3.79974025746430   -0.27958928659945   10.17156339826660
H         4.05972997199716   -0.48913829343026   11.21071575254872
H         3.55441417631135    0.78671941512292   10.06335572953705
H         2.90082726764504   -0.84582918440393    9.93470865770081
C         5.28651375034268   -2.13546080700470    9.37455675904160
H         6.09048585176152   -2.43788536585838    8.71195745559194
H         5.56326244795109   -2.39259506559483   10.39435337097603
H         4.40854516886840   -2.72657592964001    9.11776691050902
H         6.67263847630644    3.32329337574029    9.93085523151823

