49
CSD_code = PIQJAC | q = 1 | S = 0 | Stoichiometry = C20H23ClCoN2O2(1+) | MND = 8
Co        9.16880325418225   11.16500037358954   10.48114221168048
Cl        7.28231764907475   10.29224035091838   11.16029603166274
N        10.04748603651283   10.25661195206988   11.91531449111134
C        10.23827750154753   10.99176997348653   13.03105383315136
C        10.86508037144494   10.47214229015324   14.14964110682817
H        11.03138506051520   11.06032861564095   15.03542072419340
C        11.27856384559223    9.13730311051269   14.15279131049278
C        11.00274706303357    8.37189585955299   13.01556110155463
H        11.25549578929298    7.32335055480329   12.97829844181272
C        10.39180502918774    8.97137579539753   11.93585763779148
H        10.15259916161986    8.38992012464285   11.05837253276397
N         8.96985582509612   12.53471647769552   11.80246599708726
C         9.61606634298402   12.31168890406241   12.96283851971539
C         9.57947757780565   13.22020216898191   14.01028483195442
H        10.11637706009554   13.01999466306253   14.92422160449588
C         8.82393141290697   14.38616827014908   13.88249689849370
C         8.09840979964717   14.56220892986297   12.69632905239968
H         7.46754483767453   15.42784640150068   12.58523861861285
C         8.20083170704005   13.61968373187716   11.70130321368562
H         7.62892830024464   13.72650212433632   10.79229581475818
O        11.88722444196993    8.66639104187674   15.23636538102560
H        12.10395124166350    7.72661186825780   15.16004012223286
O         8.74070924518558   15.31802533378600   14.82473498465685
H         9.24947174608722   15.09738900099870   15.61728302291678
C        10.45562991009219   10.42427979639268    8.96950361230305
C         9.09183684046824   10.21105800093233    8.63734035242015
C         8.44691767251939   11.50272337639441    8.55778772861305
C         9.41961117577602   12.49438417763380    8.84735100294587
C        10.64343126904886   11.82785136047346    9.18009726233132
C        11.56129775729204    9.42379299597329    8.93598441627373
H        11.18611197279041    8.40502819938571    8.90066553404732
H        12.23096256682204    9.52666918242332    9.78786130144450
H        12.14899006148614    9.59473420405025    8.03247174099053
C         8.44251087984312    8.93849818759203    8.21471231641208
H         8.22523015570740    8.98434802579572    7.14701863123817
H         7.50011189094142    8.79796057193269    8.74113820298944
H         9.07806426608823    8.07733234641160    8.40046171730446
C         7.06230277699274   11.70361756985703    8.04729690531596
H         6.74712706882643   12.73996006677519    8.12759142062416
H         6.35846159821372   11.08124755458367    8.59697944014739
H         7.02106273035333   11.40872752531888    6.99812475573548
C         9.28899848101660   13.96829443819470    8.66185208410383
H         9.81614320953293   14.24450785714223    7.74699584725357
H         9.73917808016145   14.52545500971944    9.48124026331816
H         8.25219035163325   14.27337416564453    8.55299173983778
C        11.95632651368618   12.49845822812698    9.40874985944708
H        12.62003936193733   11.87808011136684   10.00616005860506
H        11.83027755975788   13.45725507590169    9.90568890377158
H        12.44054554860814   12.67949405475898    8.44768741745013

