66
CSD_code = PIQKEF | q = 0 | S = 0 | Stoichiometry = C26H29N2O5PSi2W | MND = 6
W        -1.22818131993826    1.65626345593733    6.52343497617727
P        -0.91299383617747    1.88235703353750    4.06365780273529
Si       -2.11729007378938    4.36145646686090    2.88236633461487
Si        0.52769367322100    2.98493859512022    1.49726800394585
N        -2.23340421903455    1.27853941374453    3.26697004187372
N        -0.78736046631051   -0.52375600268189    3.16573537234553
O        -1.70914954615098    1.33148267299945    9.59381416409291
O         1.71149679805650    2.02705719393625    7.52484702447923
O        -0.81282791338500   -1.44928000662472    6.28833389883834
O        -4.25519967169887    0.97247462970281    6.04863465851004
O        -1.23612608974437    4.76042600443610    6.95919870444391
C        -1.54235129102941    1.45590526504572    8.46884827880464
C         0.68339931709998    1.89165367821327    7.04014537428180
C        -0.97366422980689   -0.31934721908809    6.33682055215034
C        -3.17089726555467    1.30472087229545    6.17461991819880
C        -1.33110221822328    3.63727455023453    6.75912760068240
C         0.01859743002945    0.34410432741126    3.69685328298243
C        -2.01564717963001    0.03835591434745    2.91640263113275
C        -0.46290601242777    3.36867152983357    3.11165571990859
H         0.17723122746564    3.94827999566327    3.78332474007611
C        -2.99283024621564    3.85649421166371    1.26468421372696
H        -3.30299327730542    2.81745190059922    1.31026145779083
H        -2.37132587005450    3.98128550494373    0.38544265015249
H        -3.88432173846365    4.45975895847728    1.12356296780814
C        -3.39818235693481    4.12836233636073    4.26984415936018
H        -4.35594965855166    4.54412531592891    3.96917028832607
H        -3.11279316871965    4.61868946977131    5.19419328588503
H        -3.54745114742101    3.07397406970058    4.47610499828455
C        -1.61928826732328    6.20362865431557    2.87057767560738
H        -0.89129833703462    6.43401829953042    2.10232293544855
H        -1.20049255631221    6.50823799976781    3.82466263768051
H        -2.49282968876150    6.81953778858205    2.68944720084508
C         0.62245024555050    4.58746895659630    0.46393369387091
H         1.13591463752432    5.37448789358620    1.00658347456670
H        -0.34878118984773    4.96781976233368    0.17136039504686
H         1.18816266973681    4.40201417490973   -0.44322082345391
C        -0.25396431584361    1.58355853480925    0.47241704998437
H         0.11027042762400    1.60983660457878   -0.55027322201285
H        -1.33566870331236    1.65125738232930    0.44016662934010
H        -0.00149039935703    0.60948303192674    0.88102231081405
C         2.35165085091502    2.53699031475935    1.85625807517145
H         2.47387676536480    1.51311519245110    2.19398301335154
H         2.79720640903864    3.18822671447522    2.60241694755937
H         2.93413714530227    2.64831824432761    0.94645948867238
C         1.33559118901439    0.00214520103625    4.17951519145838
C         2.17078819940694    1.00068686446066    4.68160492270887
H         1.82081386566723    2.02566049889804    4.68018118567745
C         3.42629711411515    0.68369735206917    5.15863857714091
H         4.06650653398560    1.45921369283490    5.55120874526064
C         3.86039185508038   -0.63351189485628    5.14084454949415
H         4.83980278101589   -0.88177826479845    5.52160285008035
C         3.03954958539874   -1.63137318924322    4.63735909370247
H         3.38147293712929   -2.65550013511826    4.62608295711296
C         1.78322465624673   -1.32044724549384    4.15617140801867
H         1.12598455578483   -2.08235104955155    3.76742377660427
C        -3.04486651562823   -0.76886876922323    2.28621528810460
C        -4.32820127320263   -0.25081579810950    2.10785157972797
H        -4.53880221167303    0.74968251140754    2.45407608842972
C        -5.30558515320614   -1.01818954156228    1.50675261282949
H        -6.29923278950401   -0.61681384376630    1.37226043440522
C        -5.01481563853269   -2.30507236770125    1.07902866363407
H        -5.78246615891534   -2.90402170911062    0.61133326284419
C        -3.74199054803190   -2.82520070216192    1.25502684296822
H        -3.51928038441995   -3.82883741066846    0.92363980184534
C        -2.75877245541154   -2.06448829643696    1.85710524011123
H        -1.76383548687477   -2.45383559054499    2.00593634371623

