92
CSD_code = PIQLIN | q = 0 | S = 0 | Stoichiometry = C38H46CoN2P5 | MND = 6
Co       12.65117092357030    5.81034366562900   10.27891922204064
P        14.38239417587871    5.00357266869885    7.85226938994360
P        12.82570552502441    3.88819640110317    8.82523471534327
P        14.76699812159391    6.61774414719282    9.21796409483432
P        13.67650710258103    3.74396486170839   10.79750723851187
P        14.86224100554029    5.49016550363094   11.04258226994985
N        10.79946626652156    5.48929677531021   10.56101036869240
N        12.34133018009638    7.46643018327320   11.14542316741072
C        11.09587584651320    7.57117642837377   11.55792905184492
C        10.05811661218455    4.30230735139038   10.38955529392887
C        13.27217044833320    8.44546435924870   11.54358174216816
C        10.24414498784109    6.47089155142965   11.24390579336883
C         9.39574649835719    4.04655163345694    9.18488360785861
C         8.93320450959330    6.71766518530468   11.81726829501584
C        13.61034540014751    9.49571656066263   10.68520180721257
C        10.34051555518915    8.54142037091395   12.33067857285559
C         9.04092378390597    7.98193684876068   12.45717762804850
C         7.99351438372580    8.59939485021254   13.13784357384440
C        13.85504852676730    8.35710546005602   12.81603500107149
C         9.97390713644616    3.38642084038625   11.44849308384338
C        14.57339014439316   10.40863072348668   11.08687800513705
H        14.83562121811193   11.21760398747321   10.41903291035262
C        14.81451311666945    9.28818271729044   13.17648499001583
H        15.27226629209811    9.21483032523477   14.15318479027526
C         6.76786525242902    7.89303881187016   13.16739944828973
H         5.91965239766123    8.32101568921366   13.68201217158476
C        10.58817621494630    9.76172332785555   12.91004203971423
H        11.55761696681749   10.23378615233942   12.84783337914433
C         7.72752297985554    6.06087604059482   11.86525054833970
H         7.58625957200610    5.09746339258684   11.39799194622486
C         8.28489124103630    9.85491553301572   13.72145275269812
H         7.51241460208732   10.38114039234331   14.26357454866981
C         9.54003525974484   10.39890723011333   13.60174783566726
H         9.74236002281842   11.35857899706141   14.05611663741661
C         8.70666479533288    2.85321423900284    9.03360584921920
H         8.19901163463827    2.65819948981882    8.09898811654823
C         9.28068230794908    2.20423165710136   11.25366962518419
H         9.22448508844926    1.49086363090499   12.06409558977450
C        15.19709872945757   10.31192558634950   12.32100577729608
C        15.67455718716731    2.97644445276033    6.33481302459441
H        14.77808410296235    2.40471207088342    6.57636904392694
H        16.51012538748827    2.28131567735016    6.25666327267066
H        15.54534249532607    3.45002556948505    5.36510301821559
C         8.65078497197142    1.91409227391917   10.05071492712993
C        15.95768940604077    3.98919891896152    7.43748857447204
C        12.88673891989732    9.68377841498310    9.38658082972581
H        12.47950531007722    8.73867255841008    9.03504178510008
H        13.55120418351643   10.09685486383977    8.63101858814531
H        12.05462588188562   10.37626097737731    9.52555013180486
C         6.65869682556239    6.67210970199057   12.54849196599143
H         5.71392636543416    6.14809321886242   12.58296698010840
C        10.59830066942754    3.69263308030001   12.77458967402499
H        11.61304679731919    4.07314113530703   12.64339061192237
H        10.63536216351565    2.80196028870724   13.39614859332064
H        10.02267199341600    4.45855856204266   13.29663602711310
C        13.42189452073872    7.29430950093706   13.77835338943560
H        12.41271060084542    7.49844101591451   14.13941333527660
H        14.09447534781148    7.25088265691280   14.63080306875503
H        13.40703832073121    6.31691849463701   13.29216050033729
C        17.10702979824922    4.93436685593503    7.10219756802970
H        17.05026507241906    5.31091909088770    6.08595207056242
H        18.05598411387831    4.41171595727219    7.21470259887327
H        17.10302490850196    5.78076396407259    7.79265390659349
C        13.61076555068871    5.74120852459548    6.28728767574886
C        14.66388053311209    6.29130700882517    5.32962097603379
H        15.35168067615906    6.95043881709944    5.85657721744873
H        14.16690853313696    6.87189607914786    4.55222824911420
H        15.22599123664834    5.50070685562305    4.84005008466495
C        12.74330257900274    4.68627885222368    5.60453884282690
H        13.33211837388523    3.84653723237807    5.24689084156144
H        12.23329351664665    5.13120004150605    4.75030277020259
H        11.99079963154463    4.30717155421608    6.29459667260738
C        16.31311030504839    3.22791190011138    8.71281973227843
H        16.53761847259871    3.91815472410776    9.52856012088636
H        17.19338854628785    2.60898077609797    8.54251129967213
H        15.49349459038542    2.57563875864009    9.02082698305784
C         9.38685202707861    5.07915009540588    8.10157475258945
H         8.78868887012075    5.93922655396772    8.40577432956445
H         8.97500669003163    4.67469603509825    7.18063263190624
H        10.39898855830447    5.43315399902779    7.91624993475983
C        12.73430003182362    6.90903424261399    6.73830648212109
H        12.10333444848319    6.62461102165450    7.58234067886702
H        12.09100963062206    7.23179838762732    5.92060090009471
H        13.35514414528033    7.74937140340423    7.04394045871911
C         7.90697731733859    0.62372438481651    9.87995662923799
H         7.03154174258053    0.60246884045581   10.52927464090760
H         8.54087038222561   -0.21942475834554   10.14959459386827
H         7.57636463432026    0.49775305309193    8.85202403753333
C        16.26294286775398   11.28764676400409   12.71988055397395
H        17.23446934934618   10.94076133217758   12.36607853352281
H        16.31448769832509   11.38661239014996   13.80174704233283
H        16.07692889084451   12.26662225816755   12.28327796844436

