71
CSD_code = PIQPIR | q = 1 | S = 0 | Stoichiometry = C30H30AgN6O4(1+) | MND = 2
Ag       -1.16482576747320    3.63748421799728    3.25647924318080
O         2.28841126463208    3.93687106340102    6.78750066718434
N        -3.82888844007886    4.43048598698599    4.79016616403957
N        -4.43798235544353    4.43537932175994    5.98255373533982
N        -2.67480677964422    3.15913751127115    6.02779073886122
C        -2.74143831243153    3.65852692047427    4.76129998156861
C        -3.72476533107926    3.66310330603910    6.73180036766926
H        -3.93105199437292    3.45020814827405    7.76002027207805
C        -4.42793058932364    5.16450201202910    3.70483572988435
H        -4.87343576574503    6.06630266165750    4.12732757538666
H        -3.64991501673135    5.44793007238816    2.99042152140294
C        -5.50295537228432    4.32798916477934    3.02071893277774
H        -5.90660933564126    4.88706819151778    2.18271108293715
H        -6.30725935287431    4.10151619810411    3.71605457448314
H        -5.08198471053315    3.39425275185857    2.64926028929128
C        -1.67194904619051    2.26541691551525    6.53882162717324
H        -1.61620138840568    1.38611623285930    5.88482657807188
H        -1.98623604887397    1.93604684344270    7.53383829070971
C        -0.29360661346855    2.87952969568508    6.62967681217858
C        -0.04359073859295    4.16103712293598    6.28231883934439
H        -0.81270446824976    4.86181930704881    5.98948009237116
C         1.29523341374542    4.73166010633943    6.31421867686124
C         2.06262140152308    2.66497149878614    7.18823212501869
C         3.15507003833619    1.94821632820762    7.67509316704212
H         4.11316806713144    2.43969796444430    7.72203578626762
C         2.98999215419378    0.64701058260367    8.08631279567678
H         3.83547899213227    0.09580573864777    8.46806409585036
C         1.73940226383802    0.02027303772485    8.02115132506523
C         0.66260339327977    0.73304088331080    7.53504209666869
H        -0.30178847071149    0.25165274513912    7.48816123041311
C         0.79444447344609    2.06369924782714    7.11287602883014
C         1.59422650648024   -1.39387006853061    8.48290984652827
H         1.84358496244821   -1.46906679239844    9.54004149702454
H         2.27886997733722   -2.04148563336021    7.93822417118751
H         0.58032027611070   -1.75638423527419    8.33907578402856
O         1.56588092558490    5.83757920476900    5.91711367862309
O        -4.61809035358325    3.93685423729731   -0.27447217384706
N         1.49922742541746    4.43047869521816    1.72279644568170
N         2.10831307041283    4.43540089601169    0.53040548712989
N         0.34514369123132    3.15915093497228    0.48515189904853
C         0.41177942601333    3.65851575340169    1.75165201763640
C         1.39509484811972    3.66313769258686   -0.21885368225048
H         1.60137615641563    3.45026550653878   -1.24707939615536
C         2.09826690123719    5.16446639944347    2.80814750217989
H         2.54381799943796    6.06625200630912    2.38567277002739
H         1.32024175302843    5.44792027528284    3.52254189801581
C         3.17324014613804    4.32791116249207    3.49229288921460
H         3.57690320935783    4.88698194316884    4.33030169372072
H         3.97754767183364    4.10139104212256    2.79697605035526
H         2.75221609875164    3.39420034678264    3.86375550217191
C        -0.65771217863823    2.26543309544291   -0.02588656037693
H        -0.71344974525570    1.38612421268817    0.62809764243098
H        -0.34343342592076    1.93607719348927   -1.02091105386813
C        -2.03606201413567    2.87953497314738   -0.11670472805978
C        -2.28608432609784    4.16103342843502    0.23068513703060
H        -1.51697557286027    4.86180496424236    0.52356296165330
C        -3.62489387037812    4.73168715609564    0.19869672227299
C        -4.39230061191476    2.66495500610403   -0.67520393586826
C        -5.48474772910893    1.94819885127113   -1.16206556400568
H        -6.44286546361850    2.43964902351247   -1.20892697046520
C        -5.31966091527888    0.64700339135176   -1.57331633039199
H        -6.16516735729088    0.09577044090902   -1.95498444142979
C        -4.06906897234860    0.02026945889466   -1.50816191946519
C        -2.99226629365110    0.73304622601931   -1.02207389273628
H        -2.02785851489086    0.25168330660971   -0.97526514260023
C        -3.12411339192696    2.06369892661635   -0.59989266799785
C        -3.92388555297937   -1.39386496205335   -1.96994452233803
H        -4.17339597222732   -1.46908711149248   -3.02703830590995
H        -4.60841698639971   -2.04150707608490   -1.42515154671446
H        -2.90994187780703   -1.75632995437017   -1.82625262683403
O        -3.89555948328731    5.83756830339069    0.59589342178168

