89
CSD_code = PIQQOY | q = 1 | S = 0 | Stoichiometry = C36H42AgN6O4(1+) | MND = 2
Ag        3.65225900692414   14.95247017936806   -0.00003095177702
O         1.63308546480238   19.63019797324512   -0.21708397887313
O         0.32851758468587   18.04537186880096    0.60864652599074
N         4.18101544409101   14.76243942440975    3.12276611508280
N         4.55407339567563   15.43999393534392    4.21527859671118
N         4.79491202858504   16.66381055748987    2.42991056603312
C         4.31204842766786   15.46820657242342    1.99828599047264
C         4.92225003539221   16.60045352054359    3.78346463818897
H         5.27848590658677   17.39641240188767    4.40351758937801
C         3.73389122373515   13.40019219220531    3.24975359664065
H         2.80517699872841   13.27974862584414    2.68126935909783
H         3.53655558164179   13.23391735110835    4.31020968718624
C         4.79342473653565   12.41849908844819    2.74430084023461
H         4.36106910231741   11.41642894871530    2.75382097038176
H         5.04149844916312   12.67444110600036    1.70770869998798
C         6.06304605286295   12.43501317682848    3.59120227316495
H         5.80890056787269   12.19109517006268    4.62499146041962
H         6.49861454371891   13.43671545429358    3.58588373899863
C         7.10012218830585   11.43894124352370    3.07577468832187
H         6.66714987789199   10.43639181790915    3.08119486458520
H         7.36118953729922   11.68209595532692    2.04422078546971
C         8.35967663729830   11.45105089670324    3.93197096513491
H         9.08312003817341   10.73639257102107    3.54982199331764
H         8.12716803283514   11.18856150702205    4.96168518054547
H         8.81807925884216   12.43727965361711    3.92469656677297
C         5.08443521348987   17.80275079743101    1.60275394637393
H         5.77060758462658   17.49300021235029    0.80452311251734
H         5.58886005651009   18.55294670317786    2.21903124619190
C         3.85666816643178   18.42062020497238    0.97030955527585
C         2.60986712870473   17.94801656998743    1.18295531618391
H         2.38545598726117   17.13441933435130    1.85687145354528
C         1.43454777869911   18.51601341989815    0.53391325400229
C         2.86502294429358   20.14498745291953   -0.42747019837234
C         2.94995765073104   21.28097360174219   -1.23191101861889
H         2.03847931394552   21.70209539918708   -1.62401638722149
C         4.17757441639599   21.83717904210634   -1.50282778598445
H         4.24024526799268   22.71803594291140   -2.12296479600868
C         5.35402708764221   21.28079888271777   -0.98611864841849
C         5.26420668299578   20.15865084551332   -0.18782389913359
H         6.17016499901010   19.73315423042135    0.21475251964344
C         4.02813549963105   19.56971449738806    0.11290199352318
C         6.67220011659975   21.91383160426394   -1.29508935660753
H         7.49621622114008   21.33066922973403   -0.89392279644896
H         6.71463065722797   22.91412762989213   -0.86679845027916
H         6.80270007642404   22.01265345220410   -2.37100539289963
O         5.67122070461084   10.27477285930557    0.21714218644720
O         6.97580114625007   11.85965683939838   -0.60844217577993
N         3.12348513185118   15.14250946461576   -3.12283904869306
N         2.75039331685673   14.46494831748351   -4.21533820485873
N         2.50950014116413   13.24118041126215   -2.42994398282920
C         2.99242210096858   14.43677104093010   -1.99834544171878
C         2.38215488878855   13.30451826569894   -3.78349877135280
H         2.02587856458280   12.50856183552487   -4.40353184206780
C         3.57069028393411   16.50472729718999   -3.24986441987156
H         4.49942560401721   16.62512697957217   -2.68140715190060
H         3.76801413509226   16.67096247781138   -4.31032936984765
C         2.51122359740881   17.48649625452344   -2.74441563693104
H         2.94363675501036   18.48854155140991   -2.75396699181128
H         2.26314264974367   17.23059848629740   -1.70781249716842
C         1.24160271525639   17.47001895356023   -3.59131924217855
H         1.49576199226931   17.71391749922287   -4.62510883087752
H         0.80600507623069   16.46832982373981   -3.58599817713054
C         0.20454508979718   18.46612368219562   -3.07592326495603
H         0.63753285338848   19.46866595568527   -3.08136856106908
H        -0.05653046791798   18.22299887532539   -2.04436455053885
C        -1.05500264504440   18.45400840568668   -3.93213067266949
H        -1.77845171524588   19.16866777343166   -3.54999509221005
H        -0.82248684610548   18.71648697953150   -4.96184619757859
H        -1.51340145526616   17.46777785172601   -3.92484969818411
C         2.21993431088447   12.10226557784736   -1.60276597598834
H         1.53369017134246   12.41203140309081   -0.80460331942543
H         1.71557581353869   11.35203274353150   -2.21905360365654
C         3.44767154745961   11.48442503705088   -0.97022778583417
C         4.69449014255757   11.95698440270712   -1.18288824281565
H         4.91892518102042   12.77054382063443   -1.85684095572861
C         5.86977306276148   11.38898906729073   -0.53379907315464
C         4.43927147088087    9.76003090500163    0.42754363743506
C         4.35431855448312    8.62396247855820    1.23187239352152
H         5.26578602039225    8.20277693490739    1.62392763796381
C         3.12668370948013    8.06780569656853    1.50281141538305
H         3.06399195267948    7.18696189596102    2.12295675609190
C         1.95022456779052    8.62435144827200    0.98629145460255
C         2.04006782136349    9.74654172298438    0.18805568818245
H         1.13411686616853   10.17209539071059   -0.21447342636367
C         3.27616412592103   10.33538794588001   -0.11275266262283
C         0.63202516313325    7.99144021654224    1.29538810855875
H        -0.19197902172613    8.57466856614628    0.89429989400606
H         0.58945808544008    6.99114373609463    0.86711497801531
H         0.50161386537547    7.89263288379400    2.37131628888579

