72
CSD_code = PIQVUI | q = 0 | S = 0 | Stoichiometry = C30H36BrCuN4 | MND = 3
Br        6.78200167648409    8.42407009771911   -0.28716751885016
Cu        6.75690362866308    8.73744332334751    2.03133070173176
N         9.47383053984345    9.38549607700246    2.79133340535147
C         8.22391358116494    9.84983465981901    2.56743012605094
N         8.34053815542525   11.19527840361705    2.58493114286705
C        10.35495915159946   10.42275344597047    2.95412378264551
H        11.39638585567873   10.26241264057185    3.14556584657436
N         5.06877752415729    6.42875506660557    2.82606315960861
C         9.63925977740193   11.56357648752438    2.82762577256793
H         9.93872267977094   12.58962124035989    2.88640521209388
N         4.05466497818989    8.31020014130547    3.00861886636971
C         7.25298130455444   12.12249276979073    2.40023002426873
H         6.37097547677187   11.53852688065004    2.11315848588750
H         7.49245389336170   12.81491019353191    1.58696033101110
C         6.96680939713298   12.87422742639933    3.66549599676664
H         6.85996231095640   12.25390303581040    4.54505412052767
C         6.85223474820024   14.18624931448641    3.73894058641521
H         6.96094569954920   14.81348559928057    2.86869413488785
H         6.63830557285353   14.69006521897623    4.66608712432964
C         9.80049961180445    8.00428414477888    2.82914733528527
C        10.33699976911504    7.39286756628473    1.69507249671530
C        10.61754806388220    6.03625572913140    1.75747005960527
H        11.02227482839693    5.54517297318878    0.88440788584894
C        10.37921500324252    5.29408460180700    2.90609348436356
C         9.84324606990295    5.93039168579084    4.01577271009488
H         9.64905348595193    5.36496214135921    4.91567795171219
C         9.54131543677675    7.28302980754848    3.99302652163484
C         8.92453066654898    7.96192281286240    5.17765138043149
H         7.92939333643104    8.32243272113596    4.91411531094462
H         9.52024379256891    8.81954183853967    5.49010401024430
H         8.83597018401812    7.27234870601029    6.01241623154776
C        10.55145708564216    8.16660899111504    0.43430732420987
H         9.58937482416833    8.35944840914420   -0.04337108573104
H        11.16474764308389    7.60347301201701   -0.26345253352629
H        11.02535820140131    9.12747065022396    0.62785979045807
C        10.69989812405095    3.83011914328971    2.93379267075131
H        10.22915974840393    3.32162451236068    2.09385098898950
H        10.35849177383642    3.37245912781934    3.85907796115809
H        11.77581710981215    3.67888759104902    2.85117066810459
C         5.26196005751040    7.76224172286936    2.74344301212202
C         3.76649486921322    6.15002283366535    3.15071118327431
H         3.40988381807738    5.14768479356581    3.26953071209045
C         3.12407355624513    7.33549469390072    3.26146106731508
H         2.10402916586648    7.56599308547791    3.49211902436537
C         6.09099632474056    5.44154360600661    2.61641570243593
H         6.90383525672821    5.90863373989643    2.04783870448245
H         5.68406471215874    4.62817443786559    2.00422619691439
C         6.65239019336303    4.87430237817143    3.88758506711733
H         7.36552821791867    4.07812215470985    3.72681713950222
C         6.34922672392562    5.27619328851363    5.10658912441404
H         5.64711294015885    6.07208175856663    5.29340352638502
H         6.79208606030871    4.82529788956132    5.97753233702332
C         3.81298589410662    9.70871675170142    2.98899583048605
C         4.08624254072967   10.45751014155892    4.13371509040566
C         3.87076683191806   11.82469312436454    4.09657604075159
H         4.07093169959177   12.41822064201589    4.97695387638866
C         3.40679851170892   12.45105097517873    2.94621609299782
C         3.15248991700828   11.68235568861880    1.82140220294146
H         2.80057638595975   12.15957029573210    0.91830670503409
C         3.34650728352173   10.30711071805640    1.81937363741818
C         4.62290380724421    9.78221736746961    5.35965207494798
H         4.78149679992603   10.50220968912472    6.15812690035262
H         5.57160459121921    9.29561144619889    5.12919006749920
H         3.93265570993852    9.01656353790323    5.71400380855914
C         3.20646929354108   13.93530432654707    2.93442561036346
H         2.55456175216564   14.23868573209242    3.75225221254771
H         2.76664582442620   14.26281783817016    1.99602756682989
H         4.16420910704675   14.43865287244795    3.06618398392572
C         3.10016424390501    9.49162775219756    0.59109347501139
H         2.60237006168543   10.08364407508149   -0.17164529232382
H         2.49121838574483    8.61606217733905    0.81223240095128
H         4.04689875167592    9.13850027690626    0.17987245329627

