53
CSD_code = PIQZIY | q = 0 | S = 0 | Stoichiometry = C21H25N2O4Re | MND = 6
Re        3.04853137407707    2.02520158882434    1.68446701603594
O         1.04415448072574    1.86529437405684    2.31471400611376
O         2.35680002186186    2.04929494764782   -0.10429016642166
O         3.68467003255502    2.22397685079614    3.21151501480377
O         3.32688674867791    0.06828881588035    1.45235653808787
N         2.73364824003536    4.17975125586527    1.51256721851878
N         4.93798131534258    2.08845459273783    0.73512400463183
C         0.18846018468562    2.80753571951949    2.47257317562138
C        -1.10802787794135    2.42218238573853    2.91435587341740
C        -2.10962458297209    3.32771229370323    3.12262412535269
C        -1.89031695615116    4.69114541348061    2.89629465801378
C        -0.66043356093552    5.10350602355245    2.46330722944824
C         0.40405077143799    4.20300985279366    2.23875442377751
C         1.62583037227452    4.77075699361570    1.78302916397354
C         3.85608353914982    4.96979290256514    1.06351461114465
C         5.06158572061280    4.84711044573722    2.01849094770572
C         6.24368819806581    4.06218046194846    1.44742906861079
C         6.07532229230579    2.53631901487556    1.50849791389841
C         5.15187779681444    1.66931841181473   -0.46229157157606
C         4.16796609731666    1.31056159418563   -1.43716522354797
C         4.58102155762596    0.76596430652048   -2.66158366406310
C         3.67498911471550    0.43470444458094   -3.64007777717965
C         2.31586254388123    0.65934889866169   -3.42353591727871
C         1.87595203147468    1.20943629306976   -2.24433427390510
C         2.77859635527165    1.53803970953054   -1.21320663938989
C         3.06271697830605   -2.23158321530713    1.95328229741383
C         2.36819717618888   -0.87110590952876    1.80304044255952
C         1.25025076035076   -0.95683269311214    0.75224553640887
H        -1.26323699364889    1.36795906702586    3.08773505534621
H        -3.07778704421251    2.99127031325869    3.46442475527385
H        -2.68322080611403    5.40379292311505    3.06235783765144
H        -0.48265735417936    6.15558374609634    2.28405325564825
H         1.58686998437309    5.85809381263016    1.64699601692389
H         3.55705054015271    6.02296232456052    0.97563852363809
H         4.13598142649164    4.61768637177194    0.06506103312722
H         5.40581522900096    5.85017798758876    2.27408363738307
H         4.72428597497420    4.36024394116112    2.93593203533244
H         6.42345240123920    4.36517922499483    0.41239095584516
H         7.13633048423648    4.30775302075257    2.02551913479250
H         6.99480208348203    2.06816350472820    1.13615796467612
H         5.90688142912085    2.23300550126894    2.54402387676627
H         6.18772301353626    1.59923715155023   -0.80597693574010
H         5.63721224740469    0.59814497595038   -2.82204571707025
H         4.01021744619046    0.00503457769570   -4.57143284454571
H         1.60158603507491    0.39966909142981   -4.19138991374681
H         0.82450468097979    1.38257316592459   -2.06800540086030
H         3.49549966076347   -2.52844486565524    1.00103420728964
H         2.35054587494382   -2.98648662119264    2.27614162203020
H         3.85976922499645   -2.15183313448365    2.68651385872412
H         1.91480292334869   -0.59512924752752    2.76963910056759
H         0.75626246584195    0.00838683982473    0.67050424516602
H         0.51730343409298   -1.70518788316721    1.04458952485309
H         1.67088491217249   -1.22370156304957   -0.21624386125852

