55
CSD_code = PIQZUK | q = 0 | S = 0 | Stoichiometry = C24H23N2O5Re | MND = 6
Re        4.97860444605664    2.38827090876425    5.35793660208650
O         5.59887071097280    1.39441960382299    7.14300173859734
O         7.01844774134704    2.93304964313418    5.01907601499815
O         4.96699071025750    1.05143641246025    4.37790898088423
O         4.88764938963826    3.87183420776960    6.36794477014375
O         4.58846820501190    8.36095447148721    9.48523283251914
N         2.94262240839893    2.00295579359531    5.95034827928525
N         4.45574343149876    3.64749480856577    3.68642010481666
C         4.86842287020765    1.09089846786577    8.14196873122272
C         5.53135945916603    0.61691922682473    9.31257368366347
C         4.85691873627018    0.28687298338621   10.45111117502996
C         3.45989629139278    0.39579864650359   10.50953909944017
C         2.78031551623634    0.82802053070714    9.40720064080127
C         3.43721054294623    1.18514795686421    8.20547468629325
C         2.61052301186796    1.57940192577883    7.12441771319910
C         1.89210318245807    2.24436801527717    4.98800797233555
C         2.04571089925937    3.58634172014096    4.26591963716988
C         3.11054455542465    3.56830195277219    3.16501127941916
C         5.27601175599386    4.48067065971946    3.13839330808885
C         6.65332946852383    4.68996893196571    3.39871776439317
C         7.28005960259685    5.73872002015744    2.68448868835528
C         8.60842593089825    6.02319612613434    2.82137861156153
C         9.38780084210085    5.24303420041922    3.68796206754600
C         8.82712059512686    4.21860392662645    4.39239760027374
C         7.44112305653742    3.89407827621749    4.29765935464995
C         4.83418930458491    4.95697095391981    7.09778978171175
C         4.17556932616302    4.95731378318977    8.33922771677477
C         4.11860859218009    6.10214350847522    9.09756467593380
C         4.71046169311783    7.28686513168553    8.65298536132990
C         5.36593202543177    7.29593813448998    7.42628543334454
C         5.42485714816124    6.14837777247024    6.65931216065622
C         5.19283283219880    9.57337803078297    9.10860054123425
H         6.60590714527531    0.53766349861722    9.25338728324594
H         5.39998034425150   -0.06203833405198   11.31760231693582
H         2.93349328551540    0.13416128258880   11.41425546255213
H         1.70166460720775    0.90687717921083    9.43949813458548
H         1.53925355898206    1.49287756077058    7.33367271226323
H         0.91321555561542    2.21214982626417    5.48380282642777
H         1.93274741339893    1.43676219089838    4.24821937430792
H         2.28353359833618    4.36673468016361    4.99193762528477
H         1.08776708444420    3.83185174503972    3.80401612423666
H         3.02932260304237    2.62781645433054    2.60827270387444
H         2.92623284950724    4.39935400620374    2.47176073543176
H         4.87395314677814    5.12272710234233    2.34771057333513
H         6.67220722583665    6.32943626636289    2.01187381331492
H         9.05893458649954    6.83215547903511    2.26746854420616
H        10.44109912251378    5.45866220101565    3.79579103978465
H         9.41472480845364    3.61001829691969    5.06230637920122
H         3.72638315815910    4.03887181208651    8.69036729380839
H         3.61854441011049    6.10722920955847   10.05328945750627
H         5.83931109812441    8.19086316107535    7.05362486872775
H         5.94169410055469    6.15459480636541    5.70963081955674
H         6.27607306824564    9.46463684685397    8.99314758696134
H         4.98600711094963   10.26964403770858    9.91983017369620
H         4.76612583618694    9.96530395869034    8.17927714301136

