80
CSD_code = PIRDID | q = 0 | S = 0 | Stoichiometry = C36H39FeO3P | MND = 8
Fe        1.83290864192598   -0.09680250071267    2.41252214791145
P         3.19702487583212    0.96917398105601    3.71737138989490
O         4.18939407622654   -0.50004092399412    1.32221817568901
O         5.04095340032697    0.63557373599393   -0.96173946512907
O         0.46687429300894    2.26174440447856    1.48447768273105
C         3.10292108943635   -0.04307470321209    1.02433635607969
C         2.73499725287848    0.39054051580600   -0.37052861900990
C         3.82529742414191    0.08297479171584   -1.42139612885886
C         3.92950523309017   -1.44290190371453   -1.68387365661494
C         3.58892266915177   -1.57070530467113   -3.16877606691759
C         2.09582079175282   -1.23940639996870   -3.32287759041874
C         2.06230256971212    0.29538783964059   -3.19851550932758
C         3.51581052212389    0.65188640139488   -2.84602051221489
C         4.28305151845893   -0.33533400219879   -3.77390702426688
C         3.83952364230094    2.12636301069646   -2.98177991893984
C         4.01491137451429   -0.16759948961544   -5.27192493251639
C         5.80404483863130   -0.32993812014365   -3.61548856171121
C         1.05635143896240    1.33958887242568    1.84765119881425
C         2.00855598997072   -2.18224569827734    3.21806918010314
C         1.00198229117119   -1.47935902772791    3.95241333600761
C        -0.02175842155138   -1.13942683821636    3.06304063539902
C         0.36659233991108   -1.57517924238905    1.76486029777272
C         1.58413171502228   -2.28944100459066    1.89017157274374
C         4.06030394089159   -0.07779879698309    4.93578754803726
C         4.94753920264435   -1.03562632037029    4.44550275411105
C         5.57688825548545   -1.90800974174939    5.31258840847730
C         5.31413299786017   -1.84547423394512    6.67287609689691
C         4.41713185018153   -0.91071954444386    7.16104512797778
C         3.78687575028168   -0.03028051007275    6.29787543276575
C         2.44675744462027    2.24781109361353    4.78423847209609
C         1.06873639046321    2.23319191879710    4.96376577951702
C         0.46239604748813    3.17280421601686    5.77784471832985
C         1.23100073640632    4.13335857263566    6.41488774677695
C         2.60566564001456    4.15319259067810    6.23777561472165
C         3.21517297462535    3.21414114252453    5.42615386693289
C         4.55592212067021    1.92934906478403    2.96382384362516
C         5.89382812410252    1.83378429179359    3.32449553192057
C         6.84536871080215    2.58064625361218    2.64982337656037
C         6.47229417853822    3.42236523489028    1.61675539058143
C         5.13659026274447    3.53352450280935    1.26305242342199
C         4.18521650410030    2.79251475777753    1.93523104933819
H         5.18634716301461    0.26995459904060   -0.07429670077873
H         2.56182536962258    1.46722439695018   -0.33633789900298
H         1.79054547478032   -0.09421374218945   -0.60989379432051
H         4.94123694606208   -1.78983211345662   -1.47643777369062
H         3.24467250448653   -2.01165655399981   -1.05511468833750
H         3.87081675880005   -2.53114979887624   -3.59986655570833
H         1.70747576143938   -1.57951881124549   -4.28272708932549
H         1.50703180017508   -1.72624450171859   -2.54449696901208
H         1.79669341124810    0.76787343998780   -4.14370465164749
H         1.34711307153841    0.65012298692141   -2.46105696604090
H         3.69911516493317    2.45376737925945   -4.00913598330377
H         4.86787567474786    2.30638743225337   -2.68359479291666
H         3.18572594347216    2.71527673852079   -2.34152853984397
H         4.32221941348198    0.82355719082788   -5.59826781311926
H         4.60799502828146   -0.89841594276507   -5.81901626468018
H         2.97744426738373   -0.31255059481008   -5.54916417837834
H         6.21441462019780   -1.27368226769017   -3.97137465744428
H         6.11027836025618   -0.17395060130620   -2.58926764450850
H         6.23043689224422    0.47266058821947   -4.21337154302952
H         2.86274080428607   -2.67316966104103    3.65240060541457
H         0.98981246915716   -1.35620295794387    5.02398036316659
H        -0.96034705905041   -0.67288760314562    3.31076630762343
H        -0.26615499560648   -1.56025042866515    0.89113286945075
H         2.08585309436947   -2.83111232121601    1.10579682973134
H         5.12647565713989   -1.08645995591350    3.38087961962747
H         6.26911839189791   -2.64374660168884    4.92920738206985
H         5.80323155453326   -2.52997463515549    7.35033407109120
H         4.20381054724542   -0.86758964055873    8.21939507991676
H         3.08353440632286    0.69434163121765    6.68426420075769
H         0.48520813724041    1.48017101317684    4.44999391930308
H        -0.60905514662287    3.15990671998927    5.91398800674309
H         0.75887396864742    4.86985740132847    7.04823978433827
H         3.20311493067070    4.90419629965221    6.73385097140766
H         4.28744601110499    3.22595902425072    5.28515114733372
H         6.19672916781896    1.17527729768871    4.12608344392019
H         7.88542635965611    2.49792246481477    2.93081781611446
H         7.22083502234788    3.99080406930702    1.08552931206089
H         4.84213883992102    4.19015286120578    0.45833661795138
H         3.13870351396721    2.86564231249901    1.67047898777408

