45
CSD_code = PIRLOR | q = -1 | S = 0 | Stoichiometry = C18H14Cl4MnN2O6(1-) | MND = 6
Mn        5.38963476115845   -0.88023892021685    4.85057199877225
Cl        7.06663149578115   -5.09343646492942    4.58997686157849
Cl        2.16626454959117   -7.09945675656181    3.72548133678031
O         5.80722795806533   -2.55564056904961    4.05336063411196
O         4.89590774324968   -1.88618229265148    6.44718841986993
O         3.23674553374398   -3.04937373652397    7.36004729709699
N         3.37801717556485   -1.06070475166136    4.41227290665015
C         4.97295664363887   -3.53795660906508    3.95816496939862
C         5.40946161033121   -4.86394393282088    4.18807202936565
C         4.57206935726102   -5.95609474970952    4.12519536834650
C         3.23976307101401   -5.74617443309085    3.81383487962857
C         2.75737890860319   -4.47253045173890    3.56703249755751
C         3.60301320331181   -3.38115430602472    3.62618653982674
C         3.10469650489680   -1.99587574843564    3.31600014911942
C         2.69509713700916   -1.43195205153230    5.65776062845088
C         3.67462279473014   -2.22618395634200    6.57711337186921
H         4.94937021748060   -6.94712300894772    4.32267333270840
H         1.71350274464345   -4.33558129626303    3.32407960564399
H         3.63128906832825   -1.61336274280239    2.43281005845431
H         2.02604836257299   -2.03911299258395    3.10001592792336
H         3.06012314980884   -0.13671154008913    4.11634158124288
H         1.79012411356525   -2.02110291117061    5.47498363861582
H         2.43268441243204   -0.52528925953278    6.20960756187068
O         4.97194977306200    0.79519784792658    5.64763174817195
O         5.88328568429030    0.12569674393162    3.25390064842512
N         7.40127811550229   -0.69965621514600    5.28859938202755
C         5.80622462943349    1.77752049237560    5.74278450359255
C         7.10453496482414    0.46580669985599    3.12406983059108
C         7.67451317930735    0.23546842447622    6.38493122436798
C         8.08428384846349   -0.32845721554415    4.04316418371790
H         7.71913234423152   -1.62365564902887    5.58454009930151
C         5.36972781623041    3.10350811689485    5.51286680772661
C         7.17616719788872    1.62073364682423    6.07476670907344
O         7.54242731868564    1.28888390250445    2.34101768052901
H         7.14788377731290   -0.14705130117447    7.26809719715195
H         8.75315133910325    0.27869428032196    6.60095025458011
H         8.98930088985994    0.26063470727396    4.22599275204052
H         8.34659626446560   -1.23514474741578    3.49130581296573
Cl        3.71254538155459    3.33299044460679    5.11101596435643
C         6.20711679925923    4.19566692100348    5.57571566393702
C         8.02179373006065    2.71211365423667    6.13390920394852
C         7.53942342469109    3.98575350111644    5.88707262465806
H         5.82981215670267    5.18669355800845    5.37823673418666
H         9.06568017153015    2.57515585370660    6.37679813087808
Cl        8.61294067675742    5.33902981498891    5.97536124888956

