70
CSD_code = PIRNAF | q = 0 | S = 0 | Stoichiometry = C21H46NiP2 | MND = 5
Ni        3.41654833366504    0.48203443291209   15.71566518047947
P         2.88220162296366    1.89227793311509   17.44776178478750
P         4.59903134572030    1.07304470702729   20.11148472520886
C         1.57773154403598   -0.41108775515614   15.29853449886652
C         2.53189110607694   -0.98329282757029   14.50452280538523
C         5.31124585852922    1.19408787209386   15.16959442234112
C         5.16517710054131   -0.06046509813504   14.64427399759071
C         4.22549538177577    2.23368689843282   18.69029498810278
C         2.66250279181685    3.65331264129421   16.73043335446400
C         4.04733537306910    4.24302993643206   16.44069463222540
C         1.95022281420901    3.42236981472711   15.39481104691560
C         1.90685288217843    4.68678069510524   17.56162186387944
C         1.40288797844738    1.51560140537770   18.58921573001177
C         0.09033923489054    1.66710986761569   17.81778965894967
C         1.33790355027127    2.32513341841475   19.88175387138157
C         1.55809629692476    0.04085843550835   18.97426134095178
C         5.68710699665353    2.29522460190383   21.12215394912953
C         4.66612156835803    3.10870751293799   21.92945082184706
C         6.58271579194884    3.25997851850512   20.34594592113980
C         6.53407427272918    1.50664806982851   22.12074143387157
C         5.72895387479114   -0.23720229570237   19.29230900683150
C         7.02525903015998    0.25839834471181   18.66145796867553
C         4.86901680509438   -0.94669051030522   18.24048505794193
C         6.05129593834808   -1.28806667784107   20.36300146704571
H         1.19251849772591   -0.94941275112465   16.15615196257646
H         0.92412357678507    0.35216889227235   14.88528690175985
H         2.62970682277976   -0.67942216314474   13.46737225310071
H         2.94473183586261   -1.95603843048570   14.75262275933401
H         5.21085916761637    2.05148288595826   14.50999280359315
H         5.90252250654760    1.35192932484282   16.06362656210667
H         5.57835109026679   -0.92689699927792   15.15240876269816
H         4.97423014107290   -0.18734870845114   13.58593497375792
H         5.14044764508691    2.38107275772569   18.11326689576859
H         3.95659276388270    3.17822858426492   19.16936396189561
H         4.68382112325620    3.51859197340874   15.94542171963480
H         4.53812348982854    4.58118759576611   17.35035564361478
H         3.94396595433383    5.10578617148299   15.78278681947483
H         0.91609591586216    3.12430119197885   15.54738874324831
H         2.46121477554563    2.62231842609412   14.84450444180379
H         1.96030735429672    4.32321991015895   14.78215631490081
H         0.87003716034401    4.41325108628171   17.72680520427706
H         1.91215456456234    5.63682839971668   17.02593365977902
H         2.38911982256314    4.85186703391750   18.52308879816518
H         0.14440940295507    1.14861336090395   16.86582378637365
H        -0.15804815511063    2.70824291488335   17.63382357095187
H        -0.72605544273971    1.23237627179462   18.39448502629423
H         2.22870703982571    2.16512692301159   20.48477286218282
H         0.48260322094856    1.98142865469769   20.46348914796965
H         1.21239766648085    3.38756006541961   19.70688296422382
H         2.37120124538754   -0.08265601227318   19.68647931975909
H         1.77411397527094   -0.56706792958018   18.09940255571535
H         0.64343128576062   -0.32820050302933   19.43651518830885
H         4.04234920262259    2.44798597609892   22.52988863048959
H         4.01746643686788    3.69987851380590   21.28554956167820
H         5.17999192870560    3.79507971150691   22.60165085014576
H         7.26495771522312    2.74040227225575   19.68090477366606
H         7.18061684402640    3.83132674001239   21.05666099092472
H         6.00270209241751    3.97061274101992   19.76266364645112
H         5.94078494383428    0.72692699095764   22.59571733924927
H         6.90367129725937    2.17221526813924   22.90108602856246
H         7.39622422384715    1.05296906182884   21.63929972660038
H         7.72492141651516    0.60983362575528   19.41583931382942
H         6.84892922157884    1.05865787150622   17.94739355624265
H         7.50269514532069   -0.56220521941694   18.12549675614437
H         4.02259555939009   -1.43673552784389   18.71644302407672
H         5.46203605562760   -1.71597421176960   17.74571899803908
H         4.48331419284453   -0.26420573963914   17.46765767459129
H         5.15372922402581   -1.54839835781852   20.92309140605062
H         6.80467119502138   -0.94385623407447   21.06397817346697
H         6.42805136468691   -2.19363235073562   19.88835641840006

