70
CSD_code = PIRNEJ | q = 0 | S = 0 | Stoichiometry = C23H44NiP2 | MND = 7
Ni        0.06450441153680   11.85678882691118   12.95272195007038
P         0.75462558725252   10.62557787252000   11.24908346720832
P        -1.86850397243168    8.93156782535021   10.50328689524713
C         0.36623048713069   12.08653579346846   15.14858832059074
C        -0.92931296107180   12.43998427629096   14.75142119399005
C        -1.11914493299335   13.47543398520713   13.82669686205949
C        -0.01545822163555   14.15463462725865   13.30275042766738
C         1.27315999421522   13.82932645074313   13.73394196119203
C         1.46424575348624   12.79730238169164   14.65240292584381
C        -0.04680589293492    8.98618121591998   10.91221968237152
C         2.53422581921845   10.00394002648809   11.55121859791299
C         2.43175857540380    9.16608611167369   12.83242961302860
C         3.40531553545597   11.21786142825915   11.88113243824618
C         3.18986908140423    9.18533228143783   10.44508694804303
C         0.61616207950749   11.46316070537155    9.55061296978280
C        -0.73274371916586   12.18429227915983    9.61070268358039
C         1.70584333062232   12.52460364745640    9.41195825926292
C         0.62562658927474   10.53565895038113    8.34032647876141
C        -2.00411377433174    7.04043811910758   10.17980187925939
C        -1.07806835855406    6.74227304600416    8.99232816649600
C        -3.43435710646721    6.76825931991405    9.70319530792553
C        -1.64845821495424    6.10889688448558   11.33385482603513
C        -2.62926657351342    9.33088798491564   12.21898079606642
C        -2.84021229717920   10.84748549679379   12.17292018873813
C        -1.75696902278989    9.01713901372921   13.43056135425540
C        -4.00515536547524    8.68023806876773   12.37029649819422
H         0.51215172542908   11.33068255530165   15.91057356850082
H        -1.78443230839822   11.96782871238264   15.21927836712608
H        -2.12139976653169   13.79510178597184   13.56926016171711
H        -0.16389177968636   14.98551706262312   12.62489592531729
H         2.11991491279379   14.40525946225899   13.38303368755268
H         2.45849507775117   12.57705209952062   15.02003144195061
H         0.12660563303026    8.36385799361403   11.78887710406287
H         0.46550534786366    8.55348445947158   10.05388433469785
H         1.79324741755397    9.68534197579526   13.55370588427597
H         3.41522080452665    9.03268306761126   13.28059764652708
H         2.01976315420165    8.17806227360707   12.64362371388064
H         3.71938058838168   11.75035569035695   10.98998089195121
H         4.30197063161591   10.90787745791739   12.41720852417131
H         2.84240167654266   11.90110554981448   12.51705072635304
H         3.33146571030890    9.77871576327414    9.54554862832885
H         2.60961256981256    8.30033782612464   10.19526764464764
H         4.17203922246005    8.85256475025907   10.78150495754586
H        -0.77407726758530   12.81329574143569   10.50408822638738
H        -1.54653432409952   11.46323457411750    9.65490277100489
H        -0.87356658677590   12.81339856671534    8.73318496025474
H         1.78589873136321   13.09582291023053   10.33598603954795
H         1.45455084006572   13.21363346807824    8.60589324780820
H         2.66927210500499   12.07915333290429    9.17930402259671
H        -0.24910478213403    9.88930804281422    8.34524724085475
H         1.52069066006142    9.92159172228867    8.29954939358734
H         0.58953180579810   11.13642039204566    7.43181556153980
H        -1.18991735771270    7.49952349985385    8.21679920589378
H        -1.33496619351720    5.77706479663470    8.55707984152960
H        -0.03379049807779    6.69622437738773    9.29104709906120
H        -3.71543738666659    7.48554152325163    8.93312627420673
H        -4.15400827298575    6.83303843532472   10.51156623654455
H        -3.50324270960175    5.76762304578732    9.27660848724437
H        -0.62625650107791    6.26583474158593   11.67169887955696
H        -1.73169290074651    5.07431071485314   10.99951761793048
H        -2.31987587731649    6.24013678413106   12.17768525107485
H        -3.39359731072011   11.14399785409000   11.28342555150421
H        -1.85703576351153   11.35819309369472   12.17086884071558
H        -3.39973693560529   11.17430795634719   13.04866381177360
H        -1.41081617764903    7.98741752397205   13.44806298734863
H        -2.33458515746483    9.19016095143035   14.33857870791208
H        -0.88920654646263    9.69539199418446   13.44942316843180
H        -3.93245895376493    7.61016648617694   12.54440216511837
H        -4.61214704484140    8.85901980573741   11.48461960584911
H        -4.52283704264751    9.11767255969865   13.22451090429464

