87
CSD_code = PIRRIT | q = 0 | S = 0 | Stoichiometry = C47H18CoF15N6 | MND = 6
C        12.39100914356717   10.26434792475865    4.97978792629654
C        13.28011220298473   10.33639328855735    3.86228053199319
H        14.29193437472075    9.97970591219851    3.84701438123764
C        12.60446500723418   10.93376874329550    2.84645971604204
H        12.96738107801609   11.13148916568086    1.85681280819556
C        11.29967456230298   11.25324475238097    3.33971803447370
C        10.25865290846690   11.84686508565610    2.61430398785412
C         8.98360605080640   12.11536516326527    3.12860739333343
C         7.90949595298818   12.76207508023889    2.43873221767309
H         7.93353297917568   13.10723068404013    1.42350489275188
C         6.87384437449249   12.85745469327753    3.31260922551008
H         5.90397469037091   13.27686241530971    3.12617497827793
C         7.30714374493541   12.28539770503347    4.54937356805347
C         6.52644218727009   12.15574144017256    5.71091116265087
C         7.00742411064510   11.53954805632738    6.87973302363915
C         6.41000959804799   11.32510889268889    8.15601283958296
H         5.41022670633271   11.59861996141124    8.43466378584752
C         7.34652998358838   10.70860443536459    8.94821816713556
H         7.23107765339023   10.39955464454929    9.96877413999925
C         8.51299323737482   10.55543385247987    8.16202949647703
C         9.82528416039858   10.04712160193685    8.27695704020028
C        10.65312863557013    9.41317636001523    9.23355403912880
H        10.37188500190601    9.15489557305977   10.23583348007472
C        11.86677126739504    9.19661877076278    8.62941599198721
H        12.72944717513232    8.72994772639018    9.06543507820174
C        11.77824071748162    9.70845821161293    7.30205723042132
C        12.70017130303002    9.72585612143048    6.24054728887725
C        10.51900280308453   12.20593603996114    1.20793645098854
C        11.47982201650152   13.15555002840553    0.86188644540819
C        11.73375894257494   13.49460813440326   -0.46166695588569
C        11.01356907499660   12.88070696447355   -1.48229233657962
C        10.04668718708824   11.93127272685502   -1.16423668240015
C         9.81282428087206   11.60506509357500    0.16593599518438
C         5.15714192113589   12.69477494091405    5.71844098451312
C         4.05332893930396   11.86347690090041    5.90482624931677
C         2.75719592776266   12.36223615426469    5.93989962025206
C         2.53951252429128   13.72848957529167    5.78469294737314
C         3.62441189317397   14.58091385685451    5.59822680708250
C         4.91128700811664   14.05949969931933    5.57029176645834
C        14.03428868041802    9.14672980896031    6.46668050900626
C        14.47112415112304    8.02267351705862    5.76673524251756
C        15.72051820874685    7.45875988925337    5.99047587396634
C        16.56879872194177    8.01837618111275    6.94216176961013
C        16.15539226882348    9.13827062094082    7.65841561204332
C        14.90250393245163    9.68660034471074    7.41478289789328
C         9.86822001443350    8.21795053941519    4.93392105587855
H        10.90956917974696    8.37978632121279    5.15905897169963
C         9.46563124008938    6.97109473975819    4.48969039778200
H        10.20048989042311    6.19050759449924    4.37473929651924
C         8.12946097236719    6.75314763913951    4.20076972455897
H         7.78244468525565    5.79324709548293    3.85083588117486
C         7.25397599385643    7.81035999756170    4.38013203957796
H         6.19958835530000    7.70584831279878    4.18101031025697
C         7.74145026556072    9.02607523110347    4.82540850377939
H         7.05405242218018    9.84383616549863    4.96651824583240
C         9.46633859996586   13.80898779492186    6.43945582029676
H         8.43814028805001   13.66592635802987    6.15065388523540
C         9.86791218473548   15.05473026916799    6.88784440251346
H         9.14628746034174   15.85435615978703    6.93663251981939
C        11.18628166473821   15.24784119018017    7.26320393011400
H        11.53181941798575   16.20617665822943    7.61886802568851
C        12.04490907421437   14.16623674130637    7.16741146515173
H        13.08276720925505   14.24645213429648    7.44801743764668
C        11.56109724192862   12.95560329527826    6.70461163180603
H        12.23465591796733   12.11753578322749    6.63504466109997
Co        9.66080161690397   11.00432917217023    5.71587242466468
F        12.16496684851118   13.77932355584618    1.82782791751781
F        12.65888025195617   14.41173876821724   -0.75855882719093
F        11.24837660843843   13.19976217434188   -2.75649355034200
F         9.35562085890044   11.33248032016395   -2.13846370136033
F         8.89849276880722   10.66832142867281    0.44668078879174
F         4.24268528343919   10.54300507404398    6.02167199041578
F         1.72054176984216   11.53829780314210    6.11286668949066
F         1.29915588224642   14.21832772606350    5.81608070235481
F         3.42423933181548   15.89414584057123    5.45949504142684
F         5.94712297006175   14.89790735234800    5.42873299028843
F        13.65170982868612    7.44998261542518    4.87444188852097
F        16.10641141696903    6.37806796607391    5.30713657300781
F        17.76993477838365    7.48365401217356    7.16720445728411
F        16.96674170447769    9.68401134140883    8.56795970063134
F        14.53322292784061   10.78374700395609    8.08809514171112
N        11.19732395598769   10.83870880355323    4.62816908596969
N         8.59508921102732   11.84157888301084    4.39977912800781
N         8.27337407855476   11.06758530869253    6.92972804877568
N        10.53184971583775   10.20315137378267    7.13041106734494
N         9.02995325305847    9.24349193194415    5.09770505998553
N        10.29118556984297   12.76445478436962    6.34061355360768

