87
CSD_code = PIRTUH | q = 0 | S = 0 | Stoichiometry = C43H37O4P2Re | MND = 6
Re       -3.77984757169786    1.09604969692815   18.43556852592214
P        -3.59152515462257    1.45671281279996   20.83386946241592
C        -1.99802539383393    2.03862460074970   21.49980453991644
C        -0.84440764910491    1.84817018476441   20.74829345771379
H        -0.91838727444374    1.38591863216988   19.77372565962783
C         0.37938861901152    2.26774796776245   21.23932097758011
C         0.46003004714700    2.86420942369059   22.48621223633555
C        -0.68490585195599    3.02959260238437   23.25008711155798
C        -1.91072041746056    2.61594029380610   22.76358714689566
H        -2.80038870804166    2.74421423558377   23.36436746049654
C        -4.81429417928741    2.67896767524151   21.38497948350881
C        -4.51074329774177    4.02027385570279   21.58508417832336
C        -5.52148469454820    4.91835416500045   21.88186974935401
C        -6.83568698429147    4.48947924260162   21.95909240998045
H        -7.62117996160037    5.19544668089088   22.18681248911764
C        -7.14591025690056    3.15794061896660   21.72684550293899
C        -6.14185164903171    2.25680107526911   21.43247993223193
C        -3.89185414625486    0.04949407405085   21.95642231225006
C        -4.39504674459651    0.21223292503619   23.24199685483689
C        -4.54243806553523   -0.88583847339043   24.06990150982546
C        -4.18306908307960   -2.14758313331289   23.62562611786221
C        -3.68090847852705   -2.31314855349511   22.34516658809811
H        -3.40575229063676   -3.29633688892955   21.99407013704024
C        -3.53631330194615   -1.21933919356277   21.51184111672454
H        -3.16231106932224   -1.33158683334874   20.50199209110015
O        -5.20294798965107    2.76983849682023   18.49592750723314
C        -6.26305980364127    4.87112493717597   18.35739152114634
H        -7.12253062693359    4.31068292363675   18.71850939685282
H        -6.44139393135571    5.14408811121554   17.31678982603869
H        -6.14510405320267    5.78042835045815   18.94075352299162
C        -5.01749284163621    4.00746683313143   18.43788461315064
C        -3.78170165897411    4.66361907448979   18.43536518403178
H        -3.78227033083657    5.74310402318893   18.43517358077893
C        -2.42725611477448   -0.26384623335987   18.25772980750821
O        -1.58932083843623   -1.05010823425434   18.10772066882999
H         1.27211015713262    2.12998032661879   20.64716703937343
H         1.41426056665201    3.19728533244407   22.86761060078475
H        -0.62121527393069    3.48298115705548   24.22885169705146
H        -3.48782531405980    4.36295594349607   21.50296795033157
H        -5.28157931847345    5.95959863743376   22.04431003282561
H        -8.17350149283593    2.82652748912078   21.76695129033249
H        -6.37046995021993    1.21897922570359   21.22488320098475
H        -4.68776793814145    1.19223223706305   23.59300277657340
H        -4.93958130872944   -0.75624654216304   25.06634911618257
H        -4.29934530338714   -3.00134299514761   24.27686693856766
O        -2.35856763144088    2.77122725436204   18.37572001616824
C        -1.30046375308852    4.87347924837697   18.51374906222232
H        -0.44101431849235    4.31462125792707   18.15005977128240
H        -1.12083414806422    5.14402591656428   19.55478399407270
H        -1.42013848055142    5.78406567154446   17.93271456453382
C        -2.54527213852701    4.00871555798159   18.43327558986670
P        -3.96803902373013    1.45634842488452   16.03711294800717
C        -5.56138667758704    2.03899541026163   15.37129708496699
C        -6.71503051029546    1.84631587897144   16.12214269683030
H        -6.64103640198931    1.38115647443723   17.09536092301017
C        -7.93897915759127    2.26598746192935   15.63176336567179
C        -8.01976102669619    2.86453422044003   14.38598018423724
C        -6.87481788243162    3.03232708380529   13.62277876402180
C        -5.64878196365640    2.61876749347344   14.10872032246675
H        -4.75897676862470    2.74948024488319   13.50862353165596
C        -2.74424681917555    2.67776656622695   15.48637852846452
C        -3.04666556596032    4.01949936195134   15.28740971968664
C        -2.03530268447485    4.91681404313851   14.99039752401970
C        -0.72157079049769    4.48669733824312   14.91190328018279
H         0.06446010416528    5.19213043905821   14.68432560586760
C        -0.41245293632423    3.15474409635170   15.14313595672102
C        -1.41713499746931    2.25438023671049   15.43767652270153
C        -3.66833491033097    0.04889762904585   14.91465293107172
C        -3.16734599122077    0.21209001438886   13.62826304667837
C        -3.02015644118938   -0.88588326733515   12.80010707606172
C        -3.37742987995469   -2.14799486078630   13.24522504234129
C        -3.87739839120509   -2.31396153801218   14.52648306723389
H        -4.15070825870644   -3.29745892614259   14.87817753664032
C        -4.02191676524260   -1.22021763837463   15.35992816605683
H        -4.39410127818328   -1.33279765820082   16.37042598534793
C        -5.13148082121056   -0.26463080453982   18.61381529171480
O        -5.96916396177440   -1.05125216915237   18.76399069765104
H        -8.83185773648844    2.12574993725902   16.22326854904141
H        -8.97416720977355    3.19790847531954   14.00500452250963
H        -6.93838098754473    3.48866261892236   12.64533744412567
H        -4.06921789576055    4.36310493090697   15.37035190230186
H        -2.27428881831626    5.95844737352571   14.82903865032000
H         0.61479467968475    2.82231897421773   15.10205101790821
H        -1.18945015162397    1.21608287857648   15.64388715131653
H        -2.87618718460472    1.19235474791590   13.27670087198388
H        -2.62421250854954   -0.75599098934452   11.80322499260817
H        -3.26095499206204   -3.00169618863264   12.59393277682844

