55
CSD_code = PIRTIV | q = 0 | S = 0 | Stoichiometry = C26H22O5PRe | MND = 6
Re        5.96236684034908    9.99295102163879    2.53438430595872
P         4.12018717493730    9.25481429434241    1.07093758029040
C         2.87379732293673   10.49258387100737    0.57969540423360
C         3.02286828313839   11.82616902847877    0.93872175969370
H         3.87141932361841   12.12962170370775    1.53590383338131
C         2.07625355804070   12.75839882709712    0.54862911882940
H         2.19514183325999   13.79353762364734    0.83281027677288
C         0.98261329058596   12.36565214145800   -0.20315588564725
H         0.24382969250601   13.09299579795574   -0.50593052011036
C         0.83462632724435   11.03633178692163   -0.56955227100632
H        -0.01736048945228   10.72883394167533   -1.15836577655915
C         1.77607572490995   10.10200187598022   -0.18390378874964
H         1.66080594351090    9.06626145262947   -0.47261335258260
C         3.12415664512706    7.94073649380923    1.82784939961146
C         1.90780873742264    8.20198089068907    2.44778686131786
H         1.48777784634709    9.19853268090646    2.41575419824337
C         1.23817522823573    7.18588837541431    3.10684935824468
H         0.29104729436765    7.39048654371667    3.58486876018797
C         1.78253914440331    5.91383577863552    3.16136091144933
H         1.25699601684020    5.12388809978422    3.67802300401419
C         3.00740529806858    5.65559566974962    2.56475044406099
H         3.43954051275661    4.66719731847798    2.62143749287441
C         3.68265278056263    6.66610770867304    1.90845575142893
H         4.65128659709319    6.48173332334493    1.46115613293904
C         4.54716443139183    8.57951019545491   -0.56974963199073
C         3.86526649126313    7.53085826258511   -1.17558561818899
H         3.06224686674087    7.02656396398507   -0.65517661007110
C         4.22602992915890    7.11529154138194   -2.44515178292045
H         3.69649863687985    6.29618085154035   -2.90986526991476
C         5.26054656116073    7.74330324051196   -3.11818618191221
H         5.53846476245999    7.41275067968179   -4.10788495194201
C         5.94169921950585    8.79055000847728   -2.51863429944938
H         6.75198892104189    9.27905646807287   -3.03846376684633
C         5.58799657181252    9.20635358690269   -1.24897077245532
H         6.12116954221754   10.01619239445962   -0.76422620667063
O         4.22214831658244   10.83773561227718    3.59762990764186
O         5.43567203746490    8.22295545269428    3.75664648573761
C         4.62149796024788    6.81453931445059    5.46528931366498
H         5.29757806338004    6.11094742362152    4.98594105331359
H         3.61998142674172    6.39238232670110    5.50518312123946
H         4.96000272249102    6.99593733543578    6.48399999367809
C         4.61262827461095    8.12112331334872    4.69892261825043
C         3.67993411815962    9.08286505588695    5.10419382534259
H         3.01870142126647    8.82377794220078    5.91665948612737
C         3.52919075825733   10.34419716908927    4.52551714570862
C         2.41940286783250   11.22373774516744    5.06555288167620
H         2.28904525646139   12.09100345520095    4.42187453232910
H         2.68202089162254   11.56344761164385    6.06620905595220
H         1.48687523291854   10.66711218310068    5.12726755451185
C         6.37469287678593   11.60327230197152    1.52923591690026
O         6.61680960725612   12.56434569715002    0.94439652403630
C         7.36531520012105    9.01366791918041    1.61102091691894
O         8.15239441208736    8.37617921805075    1.07158843973322
C         7.13348416817467   10.52585473957455    4.00233750130870
O         7.75994152705700   10.82197074043677    4.90937581934936

