51
CSD_code = PITHAB | q = 0 | S = 0 | Stoichiometry = C23H17ClMoN2O4P2S | MND = 6
Mo       -1.13068197037522    2.39030148331994   14.75812366761728
Cl        0.71764437424261    0.08076962631527   17.03185595918796
S        -1.33469695617824    4.90420981984696   15.77826166781994
P        -1.05377383094880    3.86149712078234   17.40800777586417
P         0.60518032958507    1.87186017418091   16.24591653509933
O        -3.53480629079076    3.19459407796391   12.99048284232388
O        -0.69203588381012   -0.28157509433619   13.29772570442906
O        -3.02553789720201    0.59389599067825   16.39822274638990
O         0.93116569997030    3.73962153662786   12.88090589496147
N        -0.55236593847138    4.83997120624012   18.69645555151301
N         0.29032483365901    2.84204419681622   17.61136528753603
C        -1.26595952107457    6.02697626962002   19.09379877273867
C         0.63618043314188    4.41684124573853   19.27767291974589
C         1.32241015270955    4.99009979132372   20.33006262904861
C         2.51088292457327    4.39985365530863   20.74386032679847
C         3.00060129221369    3.26611501622245   20.12272756681092
C         2.31477204162452    2.68444147876631   19.06147200591492
C         1.13861226922896    3.26825836588680   18.65105881347207
C         2.33113774357339    2.30394486718445   15.89699450384401
C         3.30494183178630    1.35537911308037   15.61260223972294
C         4.57303234018807    1.76799704768536   15.24303495940329
C         4.86567681460818    3.11824542103417   15.14670707999460
C         3.88762833768610    4.06531379435391   15.40910287247893
C         2.61877850784413    3.66079446108174   15.77335111594326
C        -2.63607187582816    2.90782949219589   13.62386371703573
C        -0.86001562556205    0.71346257198174   13.83165845634095
C        -2.35469124599535    1.35423016969225   15.87524934598652
C         0.14689634180852    3.28617858160505   13.56538649444511
C        -2.53731218822479    3.04290818587193   18.05732599736956
C        -2.41081796976309    2.15340865535202   19.11746062129213
C        -3.54643991008526    1.56623158299213   19.64313871075969
C        -4.79345727957631    1.88015377860888   19.12516125616139
C        -4.91472356424254    2.78587370230739   18.08251026418934
C        -3.78526463480753    3.37275828221919   17.54365493385968
H        -0.61191371962917    6.90148387823698   19.06822906958495
H        -2.08128778394636    6.17937647511535   18.38359747215575
H        -1.68216871864429    5.91866910242149   20.09917776693608
H         0.94547229662530    5.87386848035747   20.81955577992245
H         3.05529592917523    4.83808778693409   21.56600468658043
H         3.92282001938893    2.82059940716321   20.46054361147269
H         2.68795261010605    1.79590197339855   18.57549718145237
H         3.06996654557845    0.30241229869157   15.68265328480519
H         5.33273160021903    1.03229912520440   15.02465580500668
H         5.85642423538496    3.43497110362183   14.85710575724426
H         4.11286044345131    5.11758570488586   15.32113275521693
H         1.84364771102419    4.39820795294235   15.96097957976459
H        -1.42991979352307    1.91551545472370   19.50879370438659
H        -3.45854805806131    0.85897157059592   20.45423471025419
H        -5.67629225081663    1.41256137442943   19.53439280101400
H        -5.88818048192161    3.02715562351373   17.68318161760478
H        -3.85547426994665    4.06744701921530   16.71458518049636

