87
CSD_code = PITHUY | q = 0 | S = 0 | Stoichiometry = C31H51N2ScSi2 | MND = 4
Sc        4.49210241612446    6.83739996734182    1.39971210343301
N         3.32795681721655    6.68479051182977    3.24844624911073
N         5.26810307238625    4.89665848444281    2.16696997281812
Si        3.16193431173237    7.79133926855479   -1.86069681474947
Si        6.54160034853074    9.25584990904389    3.06493015493225
C         6.42690539993011    3.52855417082919    3.86330758388403
H         5.93934582531062    2.84040686847033    4.55172604562701
H         7.27639623990643    3.97220641457645    4.38240216959402
H         6.79198707204933    2.97034391126728    3.00426737049912
C         5.47779882180899    4.62842075974467    3.44195901514165
C         4.85473248852201    5.32477723327277    4.48680418376695
H         5.17738874180614    5.06312710325826    5.48462585024515
C         3.78155976504835    6.21218488315075    4.40190140373376
C         3.16809130621083    6.62984984730149    5.71903755975318
H         2.49416617385344    7.47433557876056    5.59403949821122
H         3.95912995157116    6.90769264297180    6.41300956101983
H         2.61240763933046    5.80409896527132    6.16180423263415
C         2.06697943154360    7.28409357192680    3.16321922932683
C         1.92657291008667    8.51490826480869    2.51271529954204
H         2.81727690466861    9.02533580178226    2.15395636189909
C         0.67819808401501    9.08426289825494    2.35340401676582
H         0.58805729100108   10.04028358855302    1.85906365279426
C        -0.45413410700904    8.44043879539496    2.82702065091366
H        -1.42799349962093    8.88775430135776    2.69886378774847
C        -0.32718035790127    7.21654123343446    3.46300982764145
H        -1.20522833233293    6.70420401289108    3.82892766731550
C         0.91695676556312    6.64230038527413    3.63474161564819
H         1.01143549975627    5.67808912304933    4.11367293985903
C         5.64289320663361    3.95038571671656    1.18138153612119
C         6.76212979816793    4.16670735003672    0.36534148064031
C         7.04635652921340    3.25648003459674   -0.64389550590082
H         7.91119708655305    3.40820703223709   -1.27163595743557
C         6.24190038809561    2.15509146087831   -0.85414973533154
H         6.46954018896424    1.46006578502701   -1.64850424289192
C         5.14740197170195    1.93691595888156   -0.03658146822626
H         4.53205199933764    1.06851275921300   -0.20863876383316
C         4.84008669217650    2.80639339699489    0.99714777858972
C         7.67290385873825    5.35427641380671    0.58538121975119
H         7.23599231657597    5.99521691644656    1.36875698327463
C         7.79624854490208    6.19127237042590   -0.68989967011308
H         8.28363044621723    5.62824737647648   -1.48208788776434
H         8.38855054064046    7.08313311152241   -0.49597681847097
H         6.80637250159048    6.49410746142293   -1.03429893344446
C         9.05100292969471    4.89175654235487    1.06647611489280
H         8.96263578825313    4.32149765500705    1.98842383781963
H         9.69091698218067    5.75146144217601    1.25303755528695
H         9.52968176728050    4.26241197041669    0.31973143099847
C         3.64147099951748    2.56650449188203    1.89200590658559
H         3.87559373887527    2.94902786891390    2.89068604982061
C         3.28314641143873    1.08789091078233    2.04093350750468
H         2.84279862820976    0.69332237547840    1.12861074685184
H         2.55400504855638    0.96801768324313    2.83979330461350
H         4.16380575377042    0.49946168535311    2.28920293765519
C         2.43919179670971    3.35579761476014    1.36294554282470
H         2.65111147056968    4.42976480025293    1.39516970069084
H         1.55999433405999    3.15780808061257    1.97321231768811
H         2.22119791815819    3.07026071294965    0.33551178951040
C         3.32742439467286    6.49184929706565   -0.50182287373430
H         3.71442662295445    5.56784368691341   -0.97094751207378
H         2.29457912322661    6.24869784726668   -0.18481338367943
C         2.35226747227868    9.37043695441551   -1.13777690777855
H         1.40391347494398    9.13878282934054   -0.66272718966458
H         2.16165041277951   10.11038615886290   -1.90860754315498
H         2.99205625090339    9.83120203961777   -0.39001865271144
C         4.88051339809165    8.26967369578502   -2.56127747002030
H         5.53294140927225    8.64473245744723   -1.77744933336919
H         4.79610922187321    9.04368435126105   -3.31753874208521
H         5.36985693316472    7.41760344421677   -3.02322979493421
C         2.08745111236811    7.24926096564571   -3.35728410049872
H         2.49955772044104    6.36617764760258   -3.83663161092387
H         2.02106543157255    8.02852214794103   -4.11080250085866
H         1.07509314706381    7.00855371076443   -3.04631969201611
C         5.80003523178850    8.69989191711936    1.42030991095399
H         6.63532023104298    8.57947107542378    0.71134929691758
H         5.22063727201088    9.54841053447062    1.01747845890937
C         7.79524655227985   10.70576900166008    2.95196648877691
H         8.63932492727774   10.44711528853265    2.31952345814956
H         8.18915185154831   10.97678794916966    3.92703788063233
H         7.33259523657083   11.59231428242303    2.52896573775008
C         7.47248156792282    7.78533403004429    3.87504809650220
H         6.81535838062010    6.92323284343783    3.97938612353501
H         7.83833111549220    8.04237396083469    4.86445266115929
H         8.33091129861034    7.48355697672498    3.28179318138247
C         5.15896208308955    9.81560996652595    4.26926406343443
H         4.63640463577738   10.68913323887929    3.89148145152686
H         5.56092098832032   10.07467677189979    5.24385413660463
H         4.42405588416148    9.02926945301926    4.41421441446394

