57
CSD_code = PITHOR | q = 0 | S = 0 | Stoichiometry = C25H29CoN2 | MND = 7
Co        3.49692715142280    3.91638045622863    4.25292711520835
N         1.98408890234490    3.51253021237390    3.33999289246115
C         0.85378053986980    3.98043123523706    3.85746396332491
H        -0.10617849035704    3.79807741454830    3.39232436338988
C         2.74450252813540    4.79338770673453    7.76086184887837
N         2.34116389248125    4.76605498429206    5.36553044782815
C         1.86806220039146    1.22901785504919   -0.18057183884808
C         4.97768306702565    2.48520822379990    3.81864684257269
H         4.89653047703962    1.45065557880363    3.52379818510018
C         1.92705942105537    2.74945537699681    2.15722290111229
C         3.12528976143906    5.49197976012454    8.89587637099081
H         3.16874811441203    4.97064164055887    9.84207162920601
C         1.05942241786381    4.70191753774023    5.02240045270265
H         0.28564646118943    5.17388339221035    5.61373047327242
C         2.02163660837012    2.60566967324040   -0.23534857911405
H         2.12010943364590    3.09243674106671   -1.19584071666007
C         3.45120966762617    6.83889813869907    8.84397145241118
C         1.60464533084105    0.70187298276944    3.57030846485490
H         0.60569855599793    0.88371937514954    3.96793660005856
H         2.31990088654856    1.11621128408640    4.28201432385053
H         1.75434752986742   -0.37195718157914    3.49148952617140
C         2.93736535198321    7.54052973488744    5.14836795775562
H         3.38765650989124    6.92984650343907    4.36497355142545
H         3.44803346250323    8.49869927782972    5.19783152067806
H         1.89778961145760    7.71530908285114    4.86982317996954
C         2.20063163405606    4.86801885598889    0.84301525530866
H         1.24177445540574    5.35400976056791    1.02532152985170
H         2.56159375970413    5.17413897843129   -0.13538665394845
H         2.89375516130458    5.21536785577927    1.60963068006140
C         1.76075488657316    1.36184346971814    2.23411931065755
C         2.05025022291845    3.37893033657692    0.91508841129916
C         5.37537425886292    4.36634153841629    5.04893622127484
H         5.64298122908325    5.00760667198713    5.87482386413166
C         3.84665990760972    7.58756648594273   10.08129439089700
H         3.01270993332267    8.19544944393627   10.43375801448427
H         4.68226871430288    8.25449023748449    9.87790812684502
H         4.12867024195276    6.90280533968624   10.87727635892259
C         5.36185734275407    4.74154385241958    3.68483383867986
H         5.62753314588444    5.71058188863519    3.29210314604370
C         3.01132434919272    6.82740383495292    6.46364563527874
C         5.08735090809078    3.58178594308051    2.92745233906080
H         5.09798364479403    3.50750183256725    1.85109132655292
C         1.84644800956867    0.39810223713702   -1.42836742204008
H         2.70539567741304   -0.27221001935022   -1.45128722565429
H         1.87517128858682    1.02591195740736   -2.31528602345896
H         0.94659222226379   -0.21443930286830   -1.46308073897576
C         2.69526445690039    5.46607469333652    6.53604503562046
C         2.38408444127879    3.34093326552759    7.83009533472642
H         1.30271230554615    3.21540358722249    7.76514336000350
H         2.72751410685693    2.90068304125431    8.76281990339016
H         2.82658782649634    2.80342801680606    6.99053221841378
C         3.38651047328729    7.49087876116304    7.61965462801989
H         3.63506536037615    8.54176772500876    7.56603908780466
C         5.17067724045688    2.96739600365887    5.13071473428559
H         5.26899893489705    2.36882109933802    6.02271910067722
C         1.73737479623041    0.62421879070579    1.06293673499580
H         1.61290967098386   -0.44841316965872    1.11810654818613

