81
CSD_code = PITHUW | q = 0 | S = 0 | Stoichiometry = C29H41F6MoNO2Si | MND = 4
Mo        4.86844612538569   10.23893724179050    4.04381695245195
Si        3.59839678282175    8.27783632358490    6.68770439306795
N         3.17807431316991   10.13154282058526    3.67313817575266
O         5.74869699429335   11.75146160972862    4.39938182578780
O         5.60590641016361    9.15645754382315    2.73386109063011
F         8.54144703364166   12.45011334637070    4.33996609397966
F         7.82898211262756   11.15390852383120    5.90441228684798
F         8.32719451530581   13.20516056823328    6.33408411785364
F         8.96381655365995    8.13136058302353    3.03031033300687
F         7.93208727660630   10.01109710474549    3.29173178405145
F         7.60391424812227    8.39646441660912    4.66976984915818
C         4.83620703907214    9.34217956541340    5.77366154941371
H         5.81194345719370    9.32797354530760    6.26810222433939
C         3.51519885424735    6.55802123089683    5.85861771289452
C         2.39728523586174    6.12740838953735    5.15148232587153
H         1.53426867926240    6.77304747133933    5.08965617777085
C         2.36801436833774    4.88711257386285    4.53796565982446
H         1.48375943901439    4.56691680082054    4.00489476068959
C         3.46752476256840    4.04918139873483    4.61094096583153
H         3.44627372777302    3.07946435972460    4.13397716655816
C         4.59316847807794    4.46015155578561    5.30465552400747
H         5.45586280371757    3.81134225319697    5.36774051176743
C         4.61074553668674    5.69960967415506    5.91920065444009
H         5.49243853405913    6.00957426750611    6.46225090859081
C         4.14523693103289    7.98901744461395    8.50183214469558
H         4.14193867240307    8.91647003519003    9.06613672569734
H         3.48779458647546    7.29120218174305    9.01098028197269
H         5.15067837789065    7.58386316958934    8.54824653631248
C         1.84560234524098    9.03555737402310    6.73996739405645
H         1.48666323444942    9.24996932258086    5.73938188542918
H         1.13764691601861    8.36504720855185    7.21723803584887
H         1.84299879344113    9.96691282680429    7.29697784563650
C         6.29111556852680   12.79320103142823    5.11445932368663
C         7.75492511929247   12.40106050664759    5.42176229352699
C         6.30050947343663   14.09818830962345    4.30415994786445
H         6.83225878901731   14.87569655343812    4.84674855918836
H         6.79058352803852   13.93246857759571    3.34553739499548
H         5.27648747690147   14.41650773045257    4.12510647110788
C         5.54163754855049   12.95180495433249    6.44570093197629
H         5.56394602434477   12.00394433689959    6.98620534047925
H         5.99160949560093   13.73312583538259    7.05311182119308
H         4.50392679649691   13.20392845107214    6.23169857055351
C         6.59519738648684    8.23375537323655    2.49140892876233
C         7.78652816636843    8.67132596263856    3.37187198879974
C         7.03775090328672    8.29739098336749    1.01980150461808
H         6.17682423792962    8.08887886051146    0.38967526182243
H         7.81996617909808    7.56974286385239    0.82170508764134
H         7.40656229416429    9.29623831703805    0.78765393729725
C         6.14504724278602    6.82319653065902    2.89272020484452
H         5.71382901255479    6.85437476137466    3.89579302018969
H         6.98268442485050    6.13032250160848    2.87113342691115
H         5.37729426336568    6.48669121613018    2.20016193062370
C         1.87180112155059   10.23935720920001    3.37900693173131
C         1.25006566285035    9.26026194741084    2.56748567648443
C        -0.08729904969372    9.40492104463850    2.24578400830118
H        -0.57288823340068    8.67566788795411    1.61626010248894
C        -0.82161359980378   10.48032776712926    2.71646350301212
H        -1.86351170943827   10.57973065642031    2.45011371939703
C        -0.22380362236153   11.42691423719758    3.53114936810175
H        -0.81352681580662   12.25509778445586    3.89286363540069
C         1.10988696234453   11.32183235963591    3.88042106934701
C         2.09738169541841    8.11648573809421    2.06405094216285
H         2.81378367407375    7.86818264242032    2.86507579915912
C         2.90369214521664    8.58100071344991    0.84456982287656
H         3.59158080270937    9.37666794288826    1.13609513371623
H         2.23679359270996    8.95576669096342    0.06967213825297
H         3.47740388341177    7.75067278750355    0.43605430596312
C         1.29024593153460    6.86794195417933    1.71590411446424
H         0.71716400754094    7.01453964198516    0.80267944082625
H         0.60737789744769    6.61512080970432    2.52234216462028
H         1.96281259888249    6.02699262069356    1.56072946950923
C         1.80659133524615   12.33696743109987    4.75481049683706
H         2.61047310217798   11.79821052393300    5.29264353845274
C         2.46240120623952   13.39870547168129    3.86142868306247
H         1.72222389481895   13.84078540130234    3.19648806754472
H         2.89488065239846   14.19406632212310    4.46767641740576
H         3.24784132763164   12.93798734854684    3.25445500624786
C         0.88237513558900   12.99144219408610    5.77972042764399
H         0.17944917110370   13.66806164645165    5.29888518413623
H         0.32336926048905   12.23466345139168    6.32391597669617
H         1.46625089971435   13.56842138465708    6.49455501544091

