27
CSD_code = PITKOU | q = 1 | S = 0 | Stoichiometry = C2H10AgN10O4(1+) | MND = 4
N         7.71888278815882    0.51513707142297   17.93390873751501
N         4.88147218070398    1.76689459312973   13.65581441452836
H         6.87442456427083    3.05340618940784   20.85133819753731
H         7.63376796349941   -0.46114333016695   18.20549488869938
H         8.64917789171074    0.67656232049040   17.54513349611551
H         4.50790696858327    2.65949044574928   13.98176537334197
H         5.21993457147064    2.22554847176355   11.63791232023188
H         8.73107795088910    1.89416819398388   11.53530672757769
H         8.00203012865018    1.23375803000361   19.88338796528924
H         7.30880232865493    2.22160283420422   10.56251509229340
H         4.11225778572263    1.12535352329897   13.48008094525794
H         5.76215484899945    3.95933046858658   19.84233878817763
Ag        6.41354099563456    1.35343656040615   15.78187807047787
N         7.49760431755648    1.52453379305263   13.74446833451579
N         6.41715275842452    3.18937307882835   19.96588124872596
O         4.84329351357419    4.33562374772543   18.21593753905713
N         6.04659976203135    2.53404017126762   17.73818661690997
C         6.62240764978180    2.39135706074329   18.92588642683301
N         7.72127377220255    1.99651744245825   11.45179189888157
O         4.84657244412828    3.47508863194002   16.24670084211567
O         9.02230370471051    1.19357269056696   15.19904410224355
N         8.78946034632834    1.39938059638953   14.02185026382585
N         5.65890891973408    1.92031246058097   12.50157002442495
N         7.46279888260045    1.34765219891639   19.03014201654579
C         6.99798122543181    1.81512851760829   12.54926392020786
O         9.63780747176307    1.48881107606816   13.16129393983388
N         5.20410426481812    3.50576316157403   17.41010780884996

