21
CSD_code = PITKUA | q = 0 | S = 0 | Stoichiometry = CH5AgN8O6 | MND = 3
Ag        2.56761449218026    4.31036176615060    5.27528637463890
N         5.78460323130821    3.03448083890907    4.93255712723018
N         4.27854103832267    6.93438641712983    3.54093452227469
O         2.85350986769397    0.44012206709390    3.88535136035945
O         1.54811036093225    2.03012238651639    4.50711417987994
O         4.07508078583712    7.91752766295512    2.88560829825738
N         5.39949462581616    0.99701123005987    3.90481823061759
N         3.64796307074664    2.34462272881909    4.70511421367061
O         1.50299178131237    6.39497810860858    5.42530568161318
N         5.30652856712686    4.24233158902299    5.45418595643752
O         5.31881382249092    6.28061464652338    3.50944348568117
C         4.93396957659665    2.09645752848249    4.49508114267272
O         2.18819407041810    8.27442580888694    4.65010801007813
N         2.30540970192655    7.09060255365398    4.79391382309015
N         2.65042187219391    1.55070365496190    4.34072018808563
N         3.35208036731565    6.40187748130946    4.35178643539562
H         5.44121534128486    5.00999181483889    4.77420606766165
H         5.79891947029539    4.46161411579108    6.31544907888765
H         6.75895274715393    2.97345818062834    4.64807665213559
H         4.71284450252965    0.29759675453927    3.63004672320917
H         6.37864070659587    0.85641266508565    3.72879244812465

