77
CSD_code = PITQUE | q = 0 | S = 0 | Stoichiometry = C39H30PReS6 | MND = 7
Re       15.04784989339612   14.06549153581477    9.87104363711779
S        13.97119321176214   12.16821448300745    8.63220256952218
S        16.65038108453842   13.00392888331733    8.39331385593327
S        13.32791179489728   15.79201762969793   10.51060802522631
S        14.19029366368323   15.21406204575313    7.89128833292193
S        16.91709367630530   13.56978919441914   11.52718810635386
S        16.52943552381810   15.98046629557807   10.13632077432393
P        13.90136965588783   12.93947690216465   11.65421869318958
C        15.43116673463721   12.00641708972351    7.78557172554758
C        15.61167479562128   11.10879222725445    6.67248978467827
C        14.56756387379895   10.27479343054603    6.26108647814978
C        14.74199251287256    9.41876211347017    5.19384412610956
C        15.95469463802640    9.37812183516062    4.52187182402389
C        16.99647901100923   10.20022092727793    4.92373172506215
C        16.83079010527972   11.05987445151688    5.98989232583716
C        13.24031881549638   16.20055592778392    8.87159690321065
C        12.44010738933883   17.28999244044943    8.36667070080476
C        12.41839528885819   17.57997396213215    6.99953200538998
C        11.65468127976197   18.62505169055748    6.52215539146314
C        10.90302565788951   19.39538946913394    7.39615034600214
C        10.91815131769782   19.11518317943777    8.75437511201540
C        11.67839412326790   18.07167711485092    9.23993055968423
C        17.55092835514972   15.09806917916400   11.14730980781527
C        18.81644341566319   15.58340706180041   11.63528014571212
C        19.29599983684815   16.83652348028737   11.24163627142500
C        20.51213156957444   17.29264726445006   11.70636690484615
C        21.26739464587915   16.51107347199495   12.56751729352864
C        20.79899932343152   15.26732050405093   12.96479687295965
C        19.58391206614876   14.80337773121707   12.50590319374588
C        13.54907524147687   13.93616392616191   13.13697553411689
C        14.37093990581064   15.01245140688790   13.45074703386946
C        14.13251933664123   15.76471110509941   14.58608332088949
C        13.07046578251566   15.44789923522926   15.41634088677493
C        12.24454719001930   14.37946519222905   15.10632346682992
C        12.47858311614111   13.62421075833773   13.97171173410517
C        12.25873011647289   12.29321679405062   11.21023229770826
C        11.19362555043203   13.17996352626836   11.07183939610806
C         9.95768317930433   12.71969220547040   10.65962489591444
C         9.77489951114332   11.37491923112957   10.37862844638562
C        10.83219380052374   10.49074275926162   10.51165995794999
C        12.07298334568756   10.94490698072455   10.92129634533446
C        14.74140498965742   11.46282580095390   12.31982369483896
C        14.55752694453921   11.04660332192779   13.63336345297596
C        15.19163653833231    9.90490595191604   14.09067746679978
C        16.01017425643810    9.17284174222154   13.24687989995627
C        16.20110002177588    9.58732703761220   11.93896332404937
C        15.57193059323988   10.72809234584168   11.47805651115160
H        13.62768574121182   10.31403197941197    6.79183496882390
H        13.93008040313727    8.77853188273585    4.88176905686144
H        16.08748973164127    8.70702405017213    3.68628526778892
H        17.94120059460272   10.17027392368216    4.40121929240822
H        17.63837216612625   11.70375852437439    6.30607439775721
H        13.00626032963086   16.97780100616380    6.32213162269948
H        11.64468193138447   18.84192650507769    5.46421469767166
H        10.30677040032368   20.21309977363612    7.01929515181126
H        10.33385256947190   19.71526634626028    9.43618715171315
H        11.69889239394920   17.84661735811223   10.29606084106781
H        18.70429318745806   17.43961753883486   10.56879756158314
H        20.87577385849650   18.26100078912912   11.39583443088893
H        22.21966711741081   16.87061546325977   12.92816397318528
H        21.38660483531320   14.65844789239856   13.63584377028282
H        19.20812734255692   13.83723928624343   12.80843006990719
H        15.19028113328614   15.26662131430849   12.79266134803001
H        14.77361721767524   16.60145741663043   14.82036619504207
H        12.88105807921926   16.03653685480235   16.30186442471299
H        11.41166708074820   14.13471121970520   15.74953730091569
H        11.82487157000590   12.79828090751744   13.72632332808951
H        11.34206368045169   14.22837819499385   11.29001236531323
H         9.13555859340948   13.41212019734185   10.55242147094784
H         8.80903051429780   11.01790075084790   10.05257971597291
H        10.69284786127563    9.44284042197452   10.28951526621143
H        12.90047110508921   10.25638291427310   11.01490269618759
H        13.92908377309367   11.61732786802666   14.30076252470688
H        15.04807616658709    9.58802169727269   15.11343243221519
H        16.50441673391412    8.28399648361056   13.61039703685475
H        16.84476437155219    9.02510387899644   11.27872542072566
H        15.73134683592133   11.06175671686054   10.46163506130554

