45
CSD_code = PITQOY | q = 0 | S = 0 | Stoichiometry = C21H15ReS8 | MND = 6
Re       12.82587323581246    2.60369317383090    8.99538115300399
S        14.12175614970348    1.06859646086182   10.09369595525360
S        14.20054100046342   -0.65250833840754    9.00563644408813
S        12.16457994261975    0.92414423287497    7.47639140973715
S        14.30171604776083    3.45711120237615    7.46908350346392
S        15.45843249448714    4.87527620228011    8.36519941261669
S        13.46090004742032    4.28916891826252   10.51773676058624
S        10.92448638919682    3.96134462302085    8.18272168005052
S        10.83882554353998    2.20638314004250   10.41197371562495
C        13.05577816173910   -0.47081361129989    7.71634733673629
C        12.87340692514726   -1.60881203654808    6.83827109819617
C        13.35345658755862   -2.87670125357125    7.18527905662412
C        13.17085740563674   -3.95083640978206    6.33870360197479
C        12.51007778061114   -3.78611429123378    5.13105829141515
C        12.03185900751963   -2.53465125573760    4.77480215124522
C        12.21012835641229   -1.45543811764248    5.61536485565967
C        14.77351504607837    5.14733056769462    9.93580277578806
C        15.37648123251441    6.19233136663356   10.73788654930857
C        14.74416432294555    6.64711263998746   11.90094590521598
C        15.31717504363980    7.64034700252726   12.66764400257248
C        16.52923767527453    8.20120711177136   12.29564869656837
C        17.16663381897447    7.75903108976251   11.14667980876913
C        16.60016330589460    6.76602740485327   10.37415390341043
C         9.99761747776322    3.30453876855217    9.43725547596683
C         8.61315186838025    3.65142088104511    9.65729496593737
C         7.88826794417304    3.05091993921327   10.69110711518660
C         6.56628762493161    3.38623412420553   10.89880265367529
C         5.94717134545179    4.32106646937542   10.08272805522349
C         6.65768019322999    4.92176914615423    9.05437382575982
C         7.98022261811836    4.59284284179030    8.84004018596582
H        13.85940358988037   -3.01221158941999    8.12939701032938
H        13.54405184120870   -4.92323131519642    6.62277214068127
H        12.37009271306444   -4.62851444289905    4.47068438515116
H        11.52063212312185   -2.39868940550532    3.83367959950312
H        11.84831867438275   -0.47971485257839    5.33058453384729
H        13.79745522943781    6.21769267773926   12.18934346999779
H        14.81492664040456    7.98117492977950   13.56048702631118
H        16.97517552596218    8.97808334220799   12.89806735506454
H        18.11224150405438    8.18920236610362   10.85298482589807
H        17.10556716435430    6.41799050155488    9.48570864236707
H         8.37655119905452    2.32301026871694   11.32181681449189
H         6.01404637573277    2.91747720922198   11.69955471851116
H         4.91226611789780    4.58112396938172   10.24797672619256
H         6.17680125194420    5.64995211352270    8.41844327084358
H         8.54012545649019    5.05743223450277    8.04208913518599

