85
CSD_code = PITROZ | q = 0 | S = 0 | Stoichiometry = C33H43N8Rh | MND = 5
Rh       -0.11011168097295    0.57215020761245    7.24834434759765
N        -0.59421074796800    2.44895254074697    7.27675704943958
N         0.62393654041878    0.73674473375631    9.03650494853153
N         0.25770372545330   -1.33207215515200    7.27673538401990
N        -0.96393855598860    0.37840741232451    5.51880448676797
N         0.26955848127842    3.07818091336423    9.42362422862641
N         1.29491201166120   -1.53128538428644    9.43125815484762
N        -0.63420193389861   -1.96826023380022    5.14331330519349
N        -1.67082310218694    2.63890892517708    5.14099190522034
C        -0.32570667973269    3.33243899037753    8.27717124694055
C         0.69500870886176    1.88156659821911    9.77054677515527
C         1.32319082096575    1.59397318072049   11.04864754723804
C         1.61063053118330    0.26443778800144   11.05599853755919
C         1.17345981078048   -0.26646933854239    9.77546678103212
C         0.87322110366104   -2.01419386751658    8.28154813746134
C         0.98613750858764   -3.41421963788808    7.91266977797716
C         0.42751214258496   -3.54276810111769    6.67874716607543
C        -0.02963202996498   -2.22073681771353    6.28543247898529
C        -1.06182091156404   -0.77227426142714    4.79766083103731
C        -1.74976013156769   -0.49835969759392    3.54808026509918
C        -2.05159418150505    0.82816991380253    3.54724195260795
C        -1.54905964524348    1.37375165710022    4.79686214818398
C        -1.23000992316721    3.12673927353999    6.28159980720442
C        -1.38024830580734    4.51869378825669    6.66924270413960
C        -0.82087688290447    4.64631376958365    7.90273473715050
C        -0.66332954958315    5.84674636143884    8.76855818763793
C         0.78904572553143    6.32738332688816    8.76500320660400
C         1.51641996238028    2.62784976013626   12.10265401505738
C         0.20521754240258    2.89109177806969   12.84604647998970
C         2.26078029553824   -0.57327087297644   12.10129557020382
C         3.64366927145447   -1.03997688740029   11.64413530638145
C         1.64986668376597   -4.42801020999323    8.77820105363796
C         3.14296823717907   -4.51839437152796    8.45458636171307
C         0.28536691987740   -4.74348648920170    5.81035052194710
C         1.19562407801048   -4.63947379903992    4.58549921017045
C        -1.98808054270369   -1.54054798372585    2.51177522471048
C        -0.78420245574455   -1.65248025517795    1.57364993832871
C        -2.72867636417812    1.65847830605666    2.51382340480292
C        -1.72521824201965    2.57682094300283    1.81403143655977
C        -2.00553654563887    5.53985167485406    5.78451508392158
C        -0.98131828124931    6.08815359496343    4.78853237604068
C         1.67936581114815    1.01245915015577    6.36214984255765
H        -0.94172775897246    5.58255817814461    9.79075738025003
H        -1.31964546982660    6.64563933025075    8.41893686814355
H         1.84314794891204    3.55405108100350   11.62678336912039
H         2.28396321428533    2.30337770017270   12.80731941213512
H         1.63724632725568   -1.45133043944609   12.28383125063173
H         2.34431779296836   -0.00714024826105   13.03049025312796
H         1.18470985005248   -5.40544009865454    8.63461457708962
H         1.52820520028615   -4.12619375302238    9.81935280890852
H        -0.75046714351093   -4.81184655611125    5.47059288793656
H         0.52833503066406   -5.64187901695983    6.38041111641994
H        -2.88158983598483   -1.29651020551719    1.93374599593889
H        -2.13888088408887   -2.49840894634439    3.01171181545742
H        -3.48740052682526    2.27556388342743    2.99961556745773
H        -3.21548189965381    1.01272766673388    1.78090585105503
H        -2.40907670782849    6.35800199865269    6.38411538991185
H        -2.81989706810856    5.06927627815951    5.23149615680843
H         0.90182279017909    7.19620425478704    9.40916426939528
H         1.43741767951809    5.53378790925137    9.12649410602067
H         1.09863594353050    6.59800257397109    7.75789221790908
H        -0.14918596885357    1.98132718107956   13.32619182292944
H         0.34767804724096    3.65452519944598   13.60721837227693
H        -0.55191294163905    3.23226918728248   12.14482417770755
H         4.10573722425691   -1.65971067485124   12.40898988911467
H         4.28844216939047   -0.18515283895563   11.45139631931490
H         3.54841743571189   -1.61950980730381   10.73024837007134
H         3.62885153378270   -5.24012349750698    9.10686957930167
H         3.29052523381794   -4.82701190687383    7.42217342025088
H         3.61329356191451   -3.54837292176827    8.59598238720220
H         1.08218473085915   -5.51737550484062    3.95389131187064
H         2.23735124190044   -4.56137963291004    4.88945062584471
H         0.93278717917268   -3.75550851553200    4.01117806463874
H        -0.61761709657760   -0.71154877662251    1.05423416213867
H        -0.95052498851281   -2.43341271162162    0.83547308485432
H         0.10885360853495   -1.89540086552703    2.14398954535689
H        -2.22674123018934    3.18498353817238    1.06499259728787
H        -0.94890804888246    1.99203098941770    1.32529409168507
H        -1.25958593341546    3.23197704336395    2.54507345627661
H        -1.44706966161456    6.81518422427909    4.12756722781363
H        -0.15979390241130    6.57017703146883    5.31362963647965
H        -0.57919390533555    5.27660544217681    4.18742655836437
H         1.51242268983277    1.70079298283734    5.53150891186704
H         2.13661116078289    0.09498131403617    5.98707259671596
H         2.34250415824002    1.47962770644534    7.09260057256802

