102
CSD_code = PITTIY | q = 0 | S = 0 | Stoichiometry = C39H49Br2CoN4O7 | MND = 6
Br        3.84644450435469    3.01914916769507   10.55396490712401
Br        7.44026012103043    0.02489057140661    9.05716084303975
Co        5.67301357928750    1.53246640226264    9.83397600983295
O         6.06463720739915    1.19468455856730   11.62151591794284
O         7.51679025394248    2.79508557438616   16.19175403324974
O         6.20078965067882    5.35672903180369   16.16068848370562
O         5.36101899122409    8.33103036044684   16.59380723625249
O         8.19170802137848    8.15989345245467   15.06328241529918
O         8.99647886128938    6.40700251896269   12.83058166592453
O         6.86620185812774    2.95018602225892   10.01826531309911
N         6.89088138955378    3.82497073549144    7.88590048667289
N         5.34792120489945    2.01290646078642    8.05958415377177
N         4.47600203952079    0.10183624747580    9.80890735171296
N         4.78478647752626   -0.67258510796416   12.04458717448654
C         6.06757638350413    2.95736570767334    7.39862308943123
C         5.81701432283497    2.86737536309895    5.91504419436019
C         4.43863246332329    2.15273959677845    5.89423918842145
C         4.47921676254849    1.43101420970140    7.22207768892255
C         3.68169670836627    0.35217952624987    7.55168750771353
H         3.00820545094502   -0.02770699773356    6.80223906902955
C         3.70885244296909   -0.27986788088316    8.78161377990405
C         2.82255875163534   -1.44330120192863    9.16518808193057
C         3.60674435444371   -2.01218532871453   10.37885835436005
C         4.34934238160169   -0.78338024571484   10.83619803887266
C         5.56073006950906    0.37616340065730   12.41393760206998
C         5.82555603242647    0.50277560622381   13.85093857052645
C         5.33095361567523   -0.43122252495409   14.75594386116383
H         4.76159871635890   -1.26898195728715   14.38988425536409
C         5.58545549144968   -0.25650497781175   16.10461172102566
H         5.21187008013057   -0.97328659959609   16.82030650465286
C         6.30996015387615    0.83235248209458   16.54757032994359
H         6.50934153465363    0.98211082119557   17.59688968281189
C         6.80646550355800    1.77940096817932   15.64387999264898
C         6.56460229910082    1.60234728494367   14.28962193968601
H         6.93228297562359    2.29203256317153   13.54661629314949
C         7.91395426306200    3.89066968034345   15.39770698064798
H         8.46322483062922    3.56396771052165   14.50644909553002
H         8.58922471345609    4.45231031769958   16.04745872885348
C         6.75406292127881    4.80195267957486   14.98771680056088
H         7.14302009620113    5.57928200949737   14.31525453245361
H         5.98244096782808    4.22928159404823   14.45247522588944
C         4.97143526182280    6.01785941346519   15.97665366712468
H         4.49358792722247    6.03028535056742   16.95958597652736
H         4.34060004868543    5.45549298023180   15.27428471587620
C         5.10174587676859    7.47132563024160   15.49391327851194
H         5.89069307865519    7.55482713319009   14.74273659793158
H         4.14886975670193    7.77835660688643   15.04450975856265
C         6.53605782941317    9.09236577776366   16.51985230603509
H         6.53879518127108    9.68105001393815   17.43955951897100
H         6.51071107577944    9.77305336610164   15.65614620642323
C         7.82360183173884    8.26247485908356   16.42628900656772
H         8.63140274215483    8.75832639881653   16.98458938370863
H         7.65318308959392    7.26600226215597   16.85614809500196
C         9.44684888907301    7.56400444067645   14.86141573446910
H         9.47044507878394    6.54826689265245   15.28010209267440
H        10.23261946042840    8.16359149391689   15.34821013154959
C         9.71051504211820    7.50308092993263   13.36099872385984
H         9.36384042515092    8.44247385784291   12.91390916673881
H        10.78603053704427    7.38008306548704   13.17596925485164
C         8.92342051427236    6.26458454607622   11.48017214836020
C         9.55354267829523    7.09246399721131   10.55396698372367
H        10.16900794572472    7.91705834634385   10.87671968003092
C         9.39574941676357    6.86217891438674    9.19486596510760
H         9.88899399203693    7.51716377939938    8.49232827104509
C         8.62497142295652    5.81557412670373    8.73504772797582
H         8.49506735125329    5.62742120354485    7.68277718179259
C         8.00799267617066    4.97184227972489    9.65862377795684
C         8.15628947007816    5.19667250899773   11.02092739921327
H         7.66732835844858    4.55203390809253   11.73389288058049
C         7.19514616211053    3.83328010824149    9.20536763666431
C         6.93858303505760    1.96256898744485    5.37640350212003
H         7.90002025692675    2.42556591911213    5.58604212112504
H         6.84225312166620    1.83431114954996    4.30180425359819
H         6.92580588890235    0.98687557943170    5.85833757753843
C         5.88278416184401    4.22167485879585    5.22241338125322
H         5.22323022334168    4.94371238169119    5.69354230599959
H         5.61348942698266    4.11934407239416    4.17357358684393
H         6.89692181505366    4.60495182989816    5.28724330764382
C         4.21002864181952    1.23983410572152    4.69395557060508
H         4.86280221028695    0.37208061075279    4.72111765142346
H         4.39532958031402    1.79126217365612    3.77521838412035
H         3.17897054800061    0.89522663168547    4.67193415967841
C         3.27898501837275    3.15839086016491    5.99765873336345
H         2.34472983169509    2.62422808370213    6.15852871269317
H         3.19365294256595    3.73443714073561    5.08044858193988
H         3.42394944584867    3.83729472485032    6.83524441245557
C         2.58025354839807   -2.44024966527349    8.03651143679277
H         1.90463270680476   -2.01749305600442    7.29683300292870
H         2.11513358114725   -3.33827534736261    8.43610379512717
H         3.50634785034930   -2.71506564407808    7.53985174966239
C         1.48109904554741   -0.82774755597788    9.59873035874827
H         1.62004115879281   -0.12595735168030   10.41831452829775
H         0.78925438356724   -1.60642689718773    9.90765529719858
H         1.04061172750088   -0.28500963574550    8.76482061746455
C         4.70227311186393   -2.99912530705282    9.93983830990141
H         5.32472114283710   -2.57635127075761    9.15351407399054
H         4.26036974907617   -3.92742380178926    9.58842604838342
H         5.34310060389542   -3.22013159889909   10.79029405623852
C         2.77155565598670   -2.64289445334011   11.48453985567348
H         3.43412656771196   -3.02053853083254   12.25792964361681
H         2.18897284943556   -3.47126760895189   11.08776160952132
H         2.10285860066063   -1.92022537934840   11.94163900421750

