105
CSD_code = PITVIY | q = 0 | S = 0 | Stoichiometry = C53H44Cl2O2P2PtS | MND = 4
Pt        2.17201282883945   -0.07599894397583   12.52656184467025
Cl        1.83024778528400   -2.35692002594123   13.14576689381529
Cl        8.09235936121456    4.13209255443049   16.52851507661692
S         2.45479144076519    2.46546177383391   14.38119059240011
P         4.37455831117145   -0.62367974209496   12.72993908407415
P        -0.09607902637183    0.28524507232755   12.54426168210891
O         3.20414930502243    2.13079520916210    9.58069122294295
O         1.23476250232308    1.10612725575171    9.96775249832104
C         2.45780710752093    2.87866321545072   12.62072174447263
C         2.41907617736507    1.80696686158649   11.82524703593188
C         2.36276513971807    1.74948740985848   10.36465180743628
C         1.04473767305254    0.93425476146025    8.56637071365539
C         1.75676635900643   -0.30454496880311    8.04516976584083
C         2.34772737290583    4.29923736519986   12.29052681412989
C         1.71612389787101    5.17360904735323   13.17448236680739
C         1.57472109496143    6.51110907192470   12.86193823226898
C         2.07152378316920    7.00452193211081   11.66759114637076
C         2.71913932670600    6.14843774939885   10.79206336416590
C         2.86198906797653    4.80822478537317   11.09678784023112
C         4.06259351714339    2.96005963024903   14.92568264261725
C         4.45317311328400    2.55872948407697   16.20101839586873
C         5.69096944469433    2.91202838473260   16.69714963890500
C         6.53618225872988    3.68816161715843   15.91964445859876
C         6.15103453404896    4.10827686200512   14.65801940684350
C         4.91809304165710    3.73730979245739   14.15730323538109
C         5.72396030462693    0.60056169324539   12.78704035418303
C         5.82421500655637    1.48893436890980   11.71976793114193
C         6.88457203808303    2.37184497477764   11.65045420649421
C         7.85127614912125    2.37426732797262   12.64345834813943
C         7.74420195884346    1.50544374317014   13.71603532663585
C         6.68283713417914    0.62125031857929   13.79267716730513
C         4.64511161824119   -1.60695680532886   14.22935662733998
C         4.17985652590436   -1.03825874327531   15.41265699014453
C         4.29727895579503   -1.72369220930127   16.60512097186673
C         4.87343478935398   -2.98475576237296   16.62069167839300
C         5.32496985433613   -3.55632767890274   15.44334604356765
C         5.21162871802583   -2.87318311887945   14.24429734998010
C         4.91601264620204   -1.63654782171039   11.32794621233789
C         6.24738591865732   -2.00200551712901   11.15102179714878
C         6.60768671679087   -2.76357232149796   10.05491071076503
C         5.64983472154630   -3.15235898627069    9.13061184141656
C         4.32703952892653   -2.77674280067753    9.29708774118376
C         3.96096690259644   -2.01807072401272   10.39383566469632
C        -0.70990344281410    1.99320541096528   12.72350885474608
C        -0.80189933270399    2.82565292520037   11.61035367392871
C        -1.20240050294976    4.14054130292676   11.74984651401858
C        -1.51315210186108    4.64363817045515   13.00263806178956
C        -1.41360948130485    3.82593055822541   14.11508568564756
C        -1.00825525038370    2.50975560980270   13.98039837254214
C        -0.75754759348740   -0.51613586907750   14.03563848255933
C         0.07334902402006   -0.54004979180650   15.15255035670377
C        -0.35353829256667   -1.13803838744552   16.32175014640206
C        -1.61172719112206   -1.71723025521425   16.38024324999909
C        -2.44027909266474   -1.69369734734623   15.27101614767306
C        -2.01797923600168   -1.09403164094766   14.09682109528822
C        -1.07971855672798   -0.42866818994118   11.19837806049327
C        -2.28648072295106    0.10945176811481   10.76502767843459
C        -2.98206417382774   -0.50289550242348    9.73695422210622
C        -2.48403166017517   -1.65117767957800    9.14268101954606
C        -1.28933278471316   -2.19766421857263    9.58360935607796
C        -0.58838532573457   -1.58864546970676   10.60784091643388
H        -0.03691933947596    0.84617270977694    8.43211402472007
H         1.41497307546435    1.82746831564140    8.05052486008332
H         1.39168010209360   -1.18698171933141    8.56404672601155
H         1.56514650499699   -0.41216434362893    6.98106248109427
H         2.82843041430198   -0.21111112283564    8.20428449570271
H         1.32556912006226    4.79403688119725   14.10689387596911
H         1.07612274449688    7.17149486485206   13.55642693275113
H         1.96300507015587    8.05112343583361   11.42371887145563
H         3.12297570333405    6.52838298671840    9.86484842733011
H         3.38386506596551    4.15564394430355   10.41596535634517
H         3.77686240904579    1.97150388663204   16.80284629535850
H         5.99840406371962    2.59296669887241   17.68061515101391
H         6.81030566597506    4.72257954123159   14.06578756186571
H         4.63195054012789    4.05736658802454   13.16888981818384
H         5.07269639159416    1.48012327752547   10.94208257895204
H         6.95933567106784    3.05449244429011   10.81701675915837
H         8.68810352522099    3.05444322840617   12.58348862088446
H         8.49248211599107    1.51209180701478   14.49474733501103
H         6.60498651533535   -0.05770043280418   14.63019869670477
H         3.71967048643111   -0.05836871782208   15.37546293499347
H         3.93338556215859   -1.28317043625483   17.52214889198574
H         4.95991608450377   -3.52723958263728   17.55078138789995
H         5.76019273775126   -4.54506155546605   15.45576593053545
H         5.54414671010974   -3.33102709096171   13.32370436945885
H         6.99314127377951   -1.68368789343737   11.86744843536277
H         7.63931636322699   -3.05343157207354    9.91747230727865
H         5.93872453819857   -3.74613501932879    8.27581111789786
H         3.58489460351008   -3.07439606482101    8.57086249493035
H         2.92967772164359   -1.71578767589297   10.54998214427536
H        -0.55849017386569    2.43607179716227   10.63374062536573
H        -1.26708802146184    4.77737608829227   10.87974288214087
H        -1.82454984179324    5.67191699603272   13.10984286920272
H        -1.64742489199404    4.21475341267215   15.09549860156054
H        -0.92355828328407    1.88123399008327   14.85504746255822
H         1.06171990679962   -0.09625352275408   15.08270343006389
H         0.29621749729623   -1.16469339993335   17.18414909984635
H        -1.94388647589735   -2.19542405655669   17.29014361609536
H        -3.41789461545395   -2.15135629533540   15.31721356429664
H        -2.66137719516903   -1.08653257820966   13.22782105116254
H        -2.68076618228243    1.00293940898994   11.22916730855751
H        -3.91868630766942   -0.08266371767555    9.39951342117195
H        -3.03083551796357   -2.12207752413782    8.33887377608568
H        -0.90703668717115   -3.09939034409806    9.12754087001603
H         0.33787616152739   -2.01135512363483   10.97559617719158

