59
CSD_code = PITWIY | q = 0 | S = 0 | Stoichiometry = C16H30N6O4P2W | MND = 6
W         3.71891684027424    2.44828221607386   22.15473750347390
P         5.20301563240998    3.39287519192524   23.83824058336867
P         2.36090446092245    4.51524775535520   21.91605770775167
O         5.19042860790065   -0.28691883862943   21.99692950305479
O         2.00283709504476    0.95314331838801   20.02876811649659
O         5.80261689394931    2.86167157865349   19.87305749226462
O         1.95198187217562    1.16223297029075   24.39415545042621
N         6.17690158839493    2.33750059747253   24.74146271079620
N         6.61792086733476    4.23514296874372   23.41786512822723
N         2.47201655231269    5.31306690400633   20.41368743117294
N         0.72576453174452    4.20862819177401   21.55631435572501
N         4.52848157180015    4.33231259138254   25.03373654391010
N         2.20664820681918    5.81744834936614   22.96439424083151
C         4.67956183433918    0.73468007431801   22.13484288205501
C         2.58968984047547    1.57023397878900   20.80246876575731
C         5.00841944445499    2.88010507951022   20.70555005201201
C         2.55091748685841    1.72218889913837   23.59058290139107
C         7.37532855091531    2.03318360303004   23.98212304971953
C         7.71204602170361    3.30808479751610   23.19133603525219
C         1.78075878636318    4.50810486287791   19.42830595608965
C         0.51536280892822    4.00409712978062   20.13246402557445
C         5.53032230151352    1.20585149075670   25.36153259032965
C         6.51904464659804    5.32565502911370   22.48143786857375
C         3.74241190422911    5.84035582469693   19.98513741255046
C        -0.01591241043062    3.32662506493978   22.42238910290309
C         3.14073378658252    4.71456820394887   25.00458738621051
C         2.86398115469839    6.01985474195769   24.24122684448281
C         5.35316613843987    4.95603294573222   26.04580312502582
C         1.41977157951408    6.95779795079603   22.53452722228801
H         7.22015854453164    1.18699107806247   23.29778599450701
H         8.18015245689288    1.76251344105988   24.67389210554482
H         8.64296586764145    3.76607402815647   23.54559617556036
H         7.83588732027792    3.07787313643064   22.12422546201834
H         2.39757458387348    3.66103863121296   19.08720404512056
H         1.54216574003071    5.12538479206049   18.55629930634360
H        -0.36553435117708    4.57938038039970   19.82161577452739
H         0.32995912800325    2.95082969440956   19.89293388526934
H         6.17449998735417    0.80446571135879   26.14690308877696
H         4.59890049772697    1.55180869798979   25.81168667319694
H         5.30168124614580    0.40075247043907   24.65198702579169
H         6.55120080230674    4.99715380672978   21.43549389862478
H         5.57289901695510    5.83978650662255   22.65907349355104
H         7.34009323202267    6.02880486213948   22.64583406176447
H         4.43272896396924    5.06415767230520   19.63481376320663
H         3.58017326296485    6.54789998110323   19.16835049196628
H         4.19776363079779    6.37028106154998   20.82145611414197
H        -1.08602510240842    3.50229055644601   22.28968584158627
H         0.18867199131157    2.26448108394999   22.22796865817042
H         0.24721509422805    3.55585586964441   23.45613045852269
H         2.79152020029719    4.80999156609339   26.03870246025458
H         2.56272154279080    3.91823656911703   24.52431925650004
H         2.19983437042251    6.65288759451253   24.84220733464499
H         3.81008886283667    6.56927477741971   24.12020085340919
H         4.99227291991765    4.69720221668043   27.04512524661794
H         6.36761870006486    4.58163483726096   25.92564797952589
H         5.35975230663242    6.04569216026359   25.94977374565108
H         0.65401591889292    7.19255143020438   23.27918272230928
H         2.04669477568616    7.84283570212347   22.38881778221512
H         0.93460989274633    6.70791621253936   21.59496431296215

