38
CSD_code = PITWAQ | q = 1 | S = 0 | Stoichiometry = C18H13N3O3Re(1+) | MND = 6
Re        2.76638008339513   -2.77219146594279    1.68755076332672
N         0.85856034928236   -1.94162399444076    1.16694969140330
N         2.72794668637299   -0.87401871472093    2.68602734832379
N         1.70796857712199   -3.50340444054880    3.50340237700814
O         5.48189947865198   -3.71969407356037    2.83773472783816
O         2.34994938482870   -5.50660700483628    0.29336976646586
O         4.09079879071139   -1.52550004243522   -0.81790712869375
C        -0.01391536284558   -2.49799847334375    0.32930664011265
C        -1.27089340019866   -1.97309354507269    0.08603803792662
C        -1.64414618059569   -0.81363811030739    0.74795297728456
C        -0.73717822465177   -0.21999149651580    1.60762931345849
C         0.51579613797154   -0.80044776144514    1.79511717027955
C         1.55997328329217   -0.20435011750747    2.64443235623807
C         1.38736113773111    0.99226612018577    3.33749240848139
C         2.43820802887478    1.51670181780238    4.06875968734667
C         3.64464049009809    0.83392590731835    4.08118811125440
C         3.73920249569732   -0.35447950456751    3.37873269176077
C         2.18519549669072   -3.26257749206347    4.72637557071068
C         1.54550934568763   -3.67203023630827    5.88229668985112
C         0.35352613811053   -4.37160239353557    5.77908487672087
C        -0.14214858673549   -4.63261233909641    4.51137983377646
C         0.56438302200628   -4.18523192212138    3.40975464717952
C         4.48694559897794   -3.39090887064499    2.38811938303775
C         2.53636508134111   -4.50395032615211    0.80323229533578
C         3.61985982313215   -2.00597114621858    0.09955602650228
H         0.30992948970671   -3.39820801208078   -0.17723864349627
H        -1.93556304104924   -2.46320367572525   -0.60587676966535
H        -2.61648969325573   -0.37414075766788    0.59203525515723
H        -1.00493398670993    0.68806323615443    2.12068828850802
H         0.44666087358162    1.51532875488496    3.30594470394709
H         2.31908670732400    2.44283152306277    4.60823101921928
H         4.49729638696378    1.21072065679046    4.62132727342851
H         4.66934220756333   -0.90803331943191    3.36360216108292
H         3.12414072006732   -2.72706808783309    4.79061933314558
H         1.98197217633411   -3.45066881580608    6.84273721258364
H        -0.16931330953814   -4.70980649185910    6.65967730355784
H        -1.05926559907845   -5.18166562502030    4.37216835943012
H         0.19704939314347   -4.39371975938998    2.41270824017167

