183
CSD_code = PITXAT | q = 0 | S = 0 | Stoichiometry = C92H68Cl18MoN4 | MND = 6
Mo       -7.39804888004337   -3.09558817567145    7.68256155180651
Cl       -5.69757347329626   -1.48087624444189    8.51980682019040
Cl      -12.00877186026119   -0.36017082996250    3.14013085125826
Cl       -7.67986757065974   -3.57477090660395    3.62016146930750
Cl       -8.03550628407778    3.41479092552868    5.08859472221357
Cl       -5.11855888486629   -1.14139279864786    4.89766486166443
Cl       -3.67867282477050   -4.48785651343730    8.53108715082649
Cl       -1.48376185775482   -2.93519333322869    3.84021959099327
Cl       -6.29949628346548   -6.98548440105089    7.24614930706924
Cl       -5.38870250435508   -6.63788379640878    1.92870140239903
N        -8.13795768128962   -1.09565662154043    5.34702606491072
N        -5.20491951323910   -4.46193538643678    5.85761838494905
C        -7.92873013614069   -1.79991322154713    6.26101214463573
C        -6.03691696763868   -3.89306863776435    6.45819711986479
C        -8.19176856218500   -0.42888818627616    4.17624245403459
C        -7.39685502101743    0.70419060692762    3.97944869559486
C        -7.47932514396570    1.38875848832003    2.77571157420093
H        -6.84914605766595    2.25380508096196    2.65323144521844
C        -8.33383981905688    0.98040641279491    1.75990896201761
C        -9.10875057960656   -0.15626662914147    1.97694677120647
H        -9.77751024307550   -0.51392543500484    1.20950342009313
C        -9.05301707413435   -0.86693769902714    3.16283634313475
C        -9.91218392901664   -2.04959449348063    3.37392795090105
C        -9.38976550303046   -3.32394503173383    3.59894660478056
C       -10.21198317086369   -4.42347011834563    3.78210508094379
H        -9.76805645975859   -5.38784847917309    3.96721685404832
C       -11.58481669658024   -4.26275177965315    3.74158386849985
H       -12.22949281714078   -5.11889197270716    3.87143912361807
C       -12.13802104367585   -3.01107879182961    3.53338525996873
H       -13.20726824062294   -2.87190946918584    3.51680608159905
C       -11.30243932475357   -1.92237575771356    3.35644819017649
C        -6.50600930955745    1.18702685617133    5.05398751154555
C        -6.70437514473608    2.44879378169549    5.61806319759808
C        -5.87898896905804    2.94309515770883    6.61245284108517
H        -6.06656988426063    3.92156016811985    7.02518176893571
C        -4.82991245271126    2.16483442481430    7.07065910512121
H        -4.17569875083158    2.54644212736318    7.83996020939562
C        -4.61411207066238    0.90301859012980    6.54782683799683
H        -3.81651517043330    0.27660093608431    6.91219758654073
C        -5.44690357393704    0.42520786950869    5.54940147410595
C        -8.47391922736705    1.73548508591750    0.44935432886858
C        -7.54307845323155    2.94800743490802    0.36755912898932
H        -7.76102874024208    3.66307504721048    1.15741019803706
H        -7.68701532611308    3.44993025838792   -0.58696656889246
H        -6.50013097777194    2.64670913935878    0.43452994356508
C        -8.14286021466192    0.79392151079878   -0.71659266503620
H        -7.13074532693903    0.40831905207271   -0.61324892689450
H        -8.21327197491457    1.33090772934531   -1.65997402734747
H        -8.82682198131133   -0.04923421028619   -0.75497885508966
C        -9.92205785965518    2.23174663740935    0.32802703561663
H       -10.62730406828186    1.40532528075265    0.32862051194562
H       -10.05015717304305    2.78993865348702   -0.59676144433506
H       -10.16516776808671    2.88573863046318    1.16292117278999
C        -4.21940846590557   -5.27590658070887    5.42436214412789
C        -2.88013765235192   -4.91107026351317    5.60599940801256
C        -1.88534219154941   -5.76707673590020    5.16817433551222
H        -0.86122885226777   -5.46709330346126    5.32783265740138
C        -2.17461032550844   -6.98101061036467    4.55002891553890
C        -3.51035667912329   -7.31593528192544    4.36953062249921
H        -3.78947467466199   -8.24280856180139    3.89669554344231
C        -4.53491533155507   -6.48362421180414    4.79510266083081
C        -2.53726263899907   -3.61771627212118    6.23183169439318
C        -2.86104555252041   -3.31980047463172    7.55554139899029
C        -2.51788745391297   -2.10736045574193    8.13063367756021
H        -2.79904579650059   -1.91056585061621    9.15213902216584
C        -1.83828911682528   -1.16549236744711    7.37970304336355
H        -1.55726282317182   -0.22382777048467    7.82673070393492
C        -1.51236392282129   -1.42263596199008    6.05906685420054
H        -0.99624915308991   -0.68851889288512    5.46109022995632
C        -1.86515026223007   -2.63804767398229    5.49939718178196
C        -5.94537808580127   -6.85591693529812    4.56218171191822
C        -6.43561187978191   -6.97664661766467    3.26105919110780
C        -7.74617579374274   -7.34004316403924    3.00588760957235
H        -8.09019076337988   -7.41987834848176    1.98696787742209
C        -8.59927922404443   -7.58605967284424    4.06807644789245
H        -9.62057132807281   -7.87965665730330    3.87765608128843
C        -8.15156829791671   -7.46127798863001    5.37068202055283
H        -8.81142001961463   -7.62674496422006    6.20641097492987
C        -6.83591112322697   -7.09909385215256    5.60791062806777
C        -1.03285802923137   -7.87200927935509    4.09215690331269
C        -1.52375765562248   -9.16566456896756    3.43737405273662
H        -2.12125069430554   -8.95500882825748    2.55346001217943
H        -2.11137750371597   -9.75899629899005    4.13423935149458
H        -0.66743365748472   -9.76153684653109    3.12851173740499
C        -0.17138115571003   -8.24369423758741    5.30725506804320
H         0.63710484393703   -8.90465522048359    5.00271639387705
H        -0.77469213859614   -8.75678913059173    6.05326998637978
H         0.26583355236802   -7.36330105849763    5.76989246548063
C        -0.18860136400949   -7.10324253286165    3.06593647143723
H        -0.80188812469322   -6.81911803115362    2.21335266907772
H         0.62829404164850   -7.72779793868831    2.71116570110416
H         0.23498460406719   -6.19963473817317    3.49524639015766
Cl       -9.09954729702762   -4.71058851322394    6.84465106040844
Cl       -2.78697320954422   -5.83153943488684   12.22195486222965
Cl       -7.11726062128354   -2.61824473328460   11.74475059525102
Cl       -6.76133836478248   -9.60747063006385   10.27378334087701
Cl       -9.67787942623911   -5.05109344955399   10.46777550333502
Cl      -11.11882080373451   -1.70470709737995    6.83272719265242
Cl      -13.31407288598846   -3.25799450622962   11.52328634109653
Cl       -8.49853752002510    0.79287153269742    8.11805050623390
Cl       -9.40946682218163    0.44498782843480   13.43543829869983
N        -6.65893281187570   -5.09730891336036   10.01655920300200
N        -9.59279466300006   -1.73039070620362    9.50631473445571
C        -6.87210211959218   -4.39678502294081    9.10067271952905
C        -8.75845436059074   -2.29690263067882    8.90683189472387
C        -6.60456064412293   -5.76396875193053   11.18735556613588
C        -7.39917311072548   -6.89720431177158   11.38425593146186
C        -7.31579257682787   -7.58221896227706   12.58766121797100
H        -7.94572930595750   -8.44743132969247   12.71022095878320
C        -6.46064934505099   -7.17412430174193   13.60302842116024
C        -5.68626867875994   -6.03707095368040   13.38603286299019
H        -5.01714315914967   -5.67956098445507   14.15322595727426
C        -5.74294567160142   -5.32589754538201   12.20047276654036
C        -4.88431349228946   -4.14285467017480   11.98939514109076
C        -5.40728040979189   -2.86861371525603   11.76497821753498
C        -4.58552914442318   -1.76872897996540   11.58191556078588
H        -5.02987327763281   -0.80445726655278   11.39727985653924
C        -3.21262782279896   -1.92894102754876   11.62191879657125
H        -2.56832561710175   -1.07251803229035   11.49209449640306
C        -2.65888691502983   -3.18047276247415   11.82953046979228
H        -1.58958201530341   -3.31924821008517   11.84570882156225
C        -3.49400025880913   -4.26954595334380   12.00638555280727
C        -8.29071168559677   -7.37964677302468   10.31010738205452
C        -8.09275677609022   -8.64123401796071    9.74548333736797
C        -8.91872425385307   -9.13514362717929    8.75137976689331
H        -8.73142906869435  -10.11348341523469    8.33822462325721
C        -9.96798755030235   -8.35665472713680    8.29398030162426
H       -10.62265003558673   -8.73795370320211    7.52490573869305
C       -10.18338729575667   -7.09498528611555    8.81732811210453
H       -10.98116136080010   -6.46840460569878    8.45360524647849
C        -9.35002538359060   -6.61757875367267    9.81547883268588
C        -6.31929156442033   -7.92996422218495   14.91299899144569
C        -7.24973862238887   -9.14279255218465   14.99480057786913
H        -7.03227424476087   -9.85730113934455   14.20430818427175
H        -7.10484085822523   -9.64528758001517   15.94887963844547
H        -8.29282931755922   -8.84174422666850   14.92891993856931
C        -6.64958572363743   -6.98923742246297   16.07983028624972
H        -7.66190023607371   -6.60385364960426   15.97762858766655
H        -6.57818382127637   -7.52681406066193   17.02280063134114
H        -5.96582545351045   -6.14591709720275   16.11815307881783
C        -4.87090935512544   -8.42591528289281   15.03269872798870
H        -4.16588271670545   -7.59930665561993   15.03201303850448
H        -4.74184821691748   -8.98467678915698   15.95700615249165
H        -4.62836924810786   -9.07930116097855   14.19716344408508
C       -10.57851286965569   -0.91673761750476    9.93960383158310
C       -11.91771233846494   -1.28178553540463    9.75780664864433
C       -12.91264390654782   -0.42596745220981   10.19570062683846
H       -13.93670919166710   -0.72607689899936   10.03597477010505
C       -12.62356292642860    0.78794008531187   10.81399764397346
C       -11.28788028707012    1.12305982641150   10.99458656795081
H       -11.00890701017948    2.04993909391031   11.46749288361370
C       -10.26319982130093    0.29092055925151   10.56902021101815
C       -12.26038680005062   -2.57513071081924    9.13183452116442
C       -11.93648309476668   -2.87288729440529    7.80811708152494
C       -12.27952996655319   -4.08529304132978    7.23287325140022
H       -11.99832445323988   -4.28194262801704    6.21135018203728
C       -12.95916238262834   -5.02727518533353    7.98363261606302
H       -13.24012504030810   -5.96889379962281    7.53646357037992
C       -13.28521187343627   -4.77028872311619    9.30427270027382
H       -13.80137726293783   -5.50448195925808    9.90211745090958
C       -12.93249996944776   -3.55492912019980    9.86411110964013
C        -8.85276914644293    0.66333030744950   10.80199614754446
C        -8.36255602378670    0.78394960750518   12.10313212591860
C        -7.05202098876547    1.14741297982716   12.35835808153421
H        -6.70803299325824    1.22718594840950   13.37729118333793
C        -6.19891626663305    1.39358960224149   11.29620854882881
H        -5.17764380668963    1.68722231203826   11.48667233875755
C        -6.64659124145861    1.26887362507931    9.99358671578907
H        -5.98671788795043    1.43439542040816    9.15788782892129
C        -7.96222221630202    0.90663474617056    9.75631029845167
C       -13.76543607840603    1.67872189073476   11.27195309418145
C       -13.27467563706704    2.97237652729017   11.92683722621839
H       -12.67715757861655    2.76172819127910   12.81073653466307
H       -12.68712858021921    3.56583583154025   11.23001860731094
H       -14.13107255202366    3.56811715125007   12.23574311965237
C       -14.62695846595958    2.05037553709078   10.05688035231868
H       -15.43553083428579    2.71119753938849   10.36148258166854
H       -14.02372286337780    2.56361488788548    9.31090394388405
H       -15.06405318646906    1.16995704294270    9.59417613583285
C       -14.60954328471416    0.90972603561643   12.29812329373611
H       -13.99619117929673    0.62560804909831   13.15066222850950
H       -15.42651530198264    1.53412943579339   12.65297779963595
H       -15.03301003551801    0.00609973004093   11.86873435368052

