59
CSD_code = PIVCED | q = 0 | S = 0 | Stoichiometry = C16H24F6FeN4O6S2 | MND = 6
Fe        3.90167072470487    7.25714905376686    0.52050181690819
S         4.25286386571723    4.85822267360816   -1.08686207879184
F         3.38951742709927    2.71188071078800   -2.56088223199168
N         5.64854847352463    6.72577252415142    0.35649396771326
O         3.48064188298602    6.10514694954748   -1.01092487740627
C         6.28293341178940    5.79729947638234    1.05930422682290
H         5.72314550470123    5.34600299169835    1.85974214662024
S         3.38452691441458    4.98561018927360    2.87877237173355
F         1.81908219967435    3.87872023284522   -1.64945906835786
N         4.32439240717272    8.69533892179621   -0.67034829442443
O         4.37355963329160    4.07058193219531    0.09160349006826
C         7.57515406734204    5.39984268156666    0.76062873992723
H         8.03858570568005    4.62431138600577    1.34711843100154
F         2.88933002679709    4.65978028010025   -3.33948842928459
O         5.41676485304871    4.99466525238462   -1.91871842643212
C         8.24073791983877    6.00143390807786   -0.29446466402736
H         9.24927263074981    5.71769396923200   -0.55141837429052
N         4.27747888209509    8.47767371539208    2.02285080134563
F         3.57970885727534    2.42733040891417    2.04214452032407
O         3.38176739453366    5.77304274222736    1.65631383462916
C         7.56830749095935    6.96170981017695   -1.03651736311866
H         8.03058158813963    7.43105125602506   -1.89037584026290
N         2.05413257797658    7.87080631300649    0.55880786337737
F         1.85841198606672    3.51916290640760    1.29825749074547
O         2.40917632447255    5.51293438214334    3.80520131917793
C         6.26790192875990    7.27462523114474   -0.69235330950578
F         1.92102040681726    2.83654657164522    3.33119264431598
O         4.67676226981908    4.70936115415716    3.43895873258510
C         5.38028331371265    8.15135187166440   -1.51553389268389
H         5.93807731949934    8.93040832506548   -2.04828736600866
H         4.92194536081715    7.47803716646542   -2.24159187349430
C         4.78032688147266    9.86557424408726    0.07715718297033
H         3.96597061715267   10.58458692447703    0.15519248951200
H         5.60683867259713   10.36650088247174   -0.43804057491524
C         5.23722154117261    9.42227671280890    1.46143804812062
H         6.18367810003210    8.89444140974822    1.36895327699166
H         5.38594848421095   10.29006111783810    2.11877919969977
C         4.86049671738176    7.81447787976605    3.17683455053180
H         5.15876817296934    8.54127869509351    3.93999650206880
H         5.72576894635794    7.24031758611187    2.86966229727176
H         4.14196740986110    7.12107913920994    3.59884234879456
C         3.01500662638780    9.11733665402786    2.41028491737091
H         2.95364457737858   10.10979248830327    1.96257474286447
H         2.96354194439536    9.24479733333084    3.49484611595485
C         1.86237166093187    8.23895778007671    1.95344773421038
H         1.88593709339293    7.31131028990391    2.52547116451017
H         0.89866488319127    8.73941202607998    2.11728316053605
C         1.13747143835331    6.80463534081520    0.19486297423030
H         0.09777744359580    7.09425267841721    0.37266474322059
H         1.39019858657315    5.92764325301304    0.77704296818693
H         1.28855219704190    6.55008253371248   -0.84656507416503
C         1.93224800483681    8.99463577874286   -0.37233059755985
H         1.96589439733580    9.93781571833983    0.17236038109237
H         0.97545419908360    8.96079361883927   -0.90124548184910
C         3.06954579725949    8.90410002490558   -1.38252471788974
H         2.91013805632858    8.00705054080409   -1.97533830334918
H         3.10134755541984    9.78495217067369   -2.03606323342912
C         3.03307363595122    3.94628238365364   -2.20606032296324
C         2.67286300985624    3.34255980689733    2.34010720077604

