57
CSD_code = PIVFUY | q = 1 | S = 0 | Stoichiometry = C24H22CdN7O3(1+) | MND = 6
Cd        3.06471002627806    3.20121663629553    7.07806141064634
O         2.35622938067677    2.40456748200366    5.26302040342621
O         3.06219503727615    3.20326370413656    3.42431044838889
N         8.70050700984777    0.80105625096184    3.87083178043471
N         4.28887354360622    1.31553782845976    7.17552614419249
N         1.97177497971977    1.89595118734817    8.52859959336705
N         3.06347565772799    3.20223227705608    4.61947052592904
C         5.38542847290566    1.11694228259413    6.37130981595226
C         5.75165207146476   -0.12062161592675    5.80809457314124
C         6.83434525574175   -0.21915256030399    4.97463156338053
C         7.61980471670530    0.90724188039668    4.67178995209148
C         7.26071137889949    2.14285131242655    5.23883163511081
C         6.16703158039875    2.24505271333997    6.05712001438484
C         3.64885773496279    0.36817398712872    7.76561273017253
C         2.45872596253167    0.64432450389795    8.54199374628207
C         1.83761561582886   -0.37140368626457    9.27868862978759
C         0.70236410971910   -0.07840091084561   10.00904152175978
C         0.21422253707970    1.22201598154438    9.99203482035990
C         0.88584862388895    2.17046578257223    9.23560066905308
H         5.15047339857466   -0.99860357135894    5.98654005707919
H         7.08714023500434   -1.16896458003412    4.52781387167269
H         7.85128875937546    3.01685016354585    5.00985156167049
H         5.89342551065502    3.20584964830462    6.47811085071635
H         3.96754048777396   -0.67387812547834    7.73159325470834
H         2.24795869656000   -1.36925527728235    9.26973648637653
H         0.20418960165642   -0.84574299438317   10.58140458051907
H        -0.66869639366324    1.49243440748135   10.54780827723960
H         0.53679822785911    3.19610410347955    9.19441005152940
H         9.19269578056099    1.62567438383437    3.57580816119739
H         8.89582521203297   -0.06268915799478    3.39640385245020
O         3.77245847759040    3.99844651275637    5.26290014928036
N        -2.57069636497895    5.60150208010007    3.87042560109817
N         1.84053982156830    5.08693873052368    7.17563133334676
N         4.15769051889150    4.50649405617619    8.52855228280617
C         0.74401663755427    5.28555299366430    6.37137134527738
C         0.37814495919351    6.52303908375306    5.80776807065604
C        -0.70443701364577    6.62158786956450    4.97417117330364
C        -1.49013271810907    5.49529670661910    4.67156836237313
C        -1.13138190859282    4.25975640914723    5.23897945177736
C        -0.03782041600594    4.15753222342890    6.05742127670794
C         2.48064883011672    6.03431677793199    7.76559445030914
C         3.67074136538326    5.75812451976286    8.54200603443926
C         4.29189031315521    6.77383959838585    9.27868707120959
C         5.42719754283665    6.48081974999123   10.00894797960003
C         5.91528016346300    5.18037682053427    9.99196297697761
C         5.24363191020932    4.23194971203684    9.23551728086582
H         0.97946175327117    7.40094474820397    5.98611310054919
H        -0.95700133054860    7.57134851565958    4.52712102438963
H        -1.72210095796411    3.38581921399807    5.01013203216094
H         0.23553645002589    3.19678127478721    6.47868181849535
H         2.16193327695518    7.07636358041278    7.73163422575506
H         3.88164484959677    7.77173026724672    9.26963334767711
H         5.92545344980285    7.24816902235212   10.58122893553300
H         6.79824642420448    4.90995208745886   10.54765762679144
H         5.59260078613540    3.20628123532131    9.19438065390250
H        -3.06296280701807    4.77689892690926    3.57548816547252
H        -2.76569722472504    6.46514324633288    3.39567324623078

