27
CSD_code = PIVKUA | q = -1 | S = 0 | Stoichiometry = C11H5S10Ti(1-) | MND = 9
Ti       16.55062059833088    7.68316957147555   11.62318574230602
S        14.24245833083093    8.34251068003553   11.66472454294850
S        15.70810181644756    5.86090017904584   12.94245382067932
S        16.73321399315121   10.03747785921962   12.04425848163205
S        18.21722600098575    7.51792756627497   13.34192048898251
S        11.80847468140562    6.55796431477653   11.27344032396748
S        13.16568307119659    4.25810323356431   12.46380899821618
S        10.36833088078362    3.96690627265704   11.50111672955453
S        15.94574376881469   10.84807533490288   14.85965190330579
S        17.30213574629630    8.54637360363469   16.04526437647596
S        16.03026325947404   10.56546672892251   17.81734228203610
C        13.46101541111086    6.81169515353911   11.80259861312151
C        14.09125794262572    5.74384318119323   12.35538878509210
C        11.70439696527594    4.87874181513692   11.73887754687668
C        16.70061287565199    9.72603819156208   13.74158175721229
C        17.33276386839077    8.65350272754297   14.29409541473930
C        16.40622403140003   10.01801502512390   16.32451131858555
C        17.09933393453625    8.27010071119702    9.45037543087664
C        16.08327299572425    7.29288777706054    9.36885153245017
C        16.58366853159747    6.09568430480909    9.92266520812781
C        17.91159180717943    6.33073131526743   10.34497442384883
C        18.23016825253313    7.67530118106018   10.05323620903159
H        17.04618963154463    9.27601051397472    9.05056629049841
H        15.12191135351569    7.41801245641268    8.88379410058437
H        16.07492592061920    5.13796653034615    9.93592261899584
H        18.58734037830789    5.59048799159132   10.75797633899984
H        19.19527395226932    8.14710577967286   10.20081672085477

