78
CSD_code = PIVLUD | q = 0 | S = 0 | Stoichiometry = C40H34N3Rh | MND = 6
Rh        8.64867498804634    7.23349843232127    1.27874837295151
N         7.75083006488590    8.82049495220444    2.06597975685370
N         8.19254441576259    6.34166171484009    3.07280201924997
N         6.06668701105445    7.47547501102410    3.11005034549784
C         6.48063900786038    8.59156500917193    2.55328766354136
C         6.47479649523990    5.38044748602737    4.27343000594141
C        10.08614273671115    4.98501301135461    3.83487399869067
C         6.84813871495697    6.45994614737941    3.39318851507699
C         7.63386916371714    4.66737195277714    4.49010977966962
H         7.76613810355893    3.83044881902677    5.14843527401005
C         5.16433333141840    5.13884499327141    4.84592704250742
C         4.39988632293935   10.01552080105544    3.06024124910528
C         8.67076025765133    5.30040906641325    3.75944980212188
C        10.34740919897150   10.01231542212222    1.66114852621647
H        10.29914835221751    8.98431422126340    2.02442560322247
C         9.23619847449425   12.06542507278681    1.08926519270993
H         8.33284790965867   12.64595793800066    0.98066408883711
C        10.53114754791710    3.68522234333043    4.07583668484890
H         9.81294917142796    2.88464751375421    4.17174516502414
C         9.16123923005116   10.74681751157691    1.54303210381645
C         6.68568678186880   10.80244780863387    2.24477309926042
H         6.52680789602049   11.86254511516529    2.20665606452664
C         3.02153903809414    5.93285106257929    5.61438158987140
H         2.33669581044647    6.75305462889595    5.77596768050819
C         5.76955066316959    9.84240346662779    2.62217786424792
C         3.48285802061913    8.96714072236408    2.95471200988474
H         3.80623033933902    8.02595412315525    2.53973948611125
C         4.26306341735097    6.18246287645282    5.06302479438434
H         4.55085998026094    7.18720589724866    4.79963916325264
C        10.45517379898976   12.62412513418871    0.75696748923499
H        10.49788641592274   13.64369295855197    0.40212148884404
C        11.03017860721661    6.00786784092434    3.70311566261075
H        10.68201135117246    7.02036247074762    3.53690115801961
C         3.96597527568633   11.23323035858000    3.58931436967137
H         4.66549330051500   12.04972674753990    3.69041082847795
C         7.89474340161428   10.14153126004143    1.90919880115684
C         2.65576420790304    4.64323754881786    5.96471275782740
H         1.68457430211586    4.45049776692369    6.39703743168284
C        11.56136025220740   10.57483216225786    1.32593032048361
H        12.46856250864716    9.99574154398621    1.42117642497049
C        11.62096937390795   11.88428190661955    0.87315605618518
H        12.57140915812371   12.32608163271521    0.61293191914450
C         1.75986526323838   10.34367167684873    3.90221950416550
H         0.73853211498727   10.47141413087379    4.23049091703491
C         4.78657257092561    3.84325378300865    5.20687908745982
H         5.46773126504664    3.02281272448498    5.03397697929982
C        12.37964403415901    5.73425929941097    3.80081156497018
H        13.10026736752632    6.53314633708020    3.70187081490760
C        11.88350843716188    3.41638768124629    4.16774140576208
H        12.21850667145228    2.40506630357969    4.34706379805562
C        12.81099700726479    4.43672477551249    4.03100825163416
H        13.86667856193725    4.22220373996809    4.10719709223613
C         3.54438827691443    3.60001380513841    5.75903042285133
H         3.26467388922436    2.59148478300579    6.02910685930569
C         2.65886368106480   11.39347620788532    4.00457175719544
H         2.33800625537915   12.34028472722115    4.41529696955623
C        10.09004985353510    5.83883624143559    0.51782720955360
H        10.69943844748466    5.46987199429722    1.34082444554998
C        10.11859237587150    7.45745988095677   -1.45074382992334
H        10.80465343567963    8.21338513301561   -1.83789880369533
H         9.67839080585509    6.95198180402771   -2.31140385297792
C         8.83133883256735    5.28448598515377    0.35903780593998
H         8.51632489002856    4.53775067312200    1.08777540309687
C         9.02762919521462    8.14672174916863   -0.66079536475996
H         9.17673160773429    9.21739643504275   -0.54586801843000
C        10.91256450196993    6.46552441861757   -0.58448116588110
H        11.33898166420402    5.67234083102483   -1.20866013747619
H        11.74870566756490    6.99339371135642   -0.11933122533145
C         7.71630259030760    7.69346944092057   -0.58735751447974
H         6.93550670767364    8.43892393414849   -0.42253189011153
C         8.10919096034542    5.20430170595798   -0.96814863415761
H         8.84199993735951    5.12737829195153   -1.77216801426179
H         7.50661688937465    4.29404610266379   -0.99270830646361
C         7.18557616972135    6.41405841927546   -1.19015243413708
H         7.01228777484393    6.56737138506489   -2.26116984371451
H         6.21413138391649    6.20608491522681   -0.73233517039897
C         2.17810575407901    9.13176118719605    3.37678984711741
H         1.48127075871553    8.31018333255454    3.29214642015496

