82
CSD_code = PIVMAJ | q = 1 | S = 0 | Stoichiometry = C39H38CuN3P(1+) | MND = 4
Cu        1.71909198567088    9.24733833187059    4.58808931705810
N         0.69842330535062   10.78328604417370    5.45091681154584
C         0.65281932275717   11.50868509223004    3.14596332051168
H         0.64534806209523   12.45213226078013    2.58372728960011
H        -0.15429699700281   10.87921866494513    2.75530152604869
C         0.36430862376550   11.75890423854689    4.60272113130358
C        -0.24489403148553   12.92439715444242    5.03702668967033
H        -0.50412379139765   13.69727265973014    4.33110998312508
C        -0.51501578996907   13.07309028623119    6.38969261691136
H        -0.98697292221235   13.97075553368587    6.75773654873120
C        -0.16584284729192   12.05424485794758    7.25654504527098
H        -0.36006211361265   12.13468205240877    8.31391287270213
C         0.44587584789388   10.91017271294694    6.75233914055660
C         0.83123268452065    9.78476136912310    7.65248789378573
H         1.32473223427705   10.15863548423828    8.54644844331845
H         1.50125523545095    9.10387192119172    7.12694863624656
H        -0.05783454555865    9.23742479029374    7.96413864748764
N         1.90603004054170   10.78292043157219    2.99056169022692
C         1.95748528855558   10.03233516782774    1.74927678742228
H         2.98538542951442    9.68201966793469    1.60810477675072
H         1.69035146416796   10.64497973436305    0.87571049742675
C         1.07179129767883    8.81375713484494    1.80700640667135
C         0.58558946084364    8.22391008956695    0.64994658004599
H         0.80762487126416    8.65545529318659   -0.31292910515775
C        -0.18429000368105    7.07619768660604    0.76007776571685
H        -0.57417950136455    6.59333334297565   -0.12253476031647
C        -0.44959321825916    6.56314502656020    2.01782991485951
H        -1.04748268885809    5.67425581149941    2.13876601388035
C         0.06441562436651    7.21130489174461    3.13568223012490
C        -0.17559337730156    6.70525541933585    4.51803693761773
H        -1.17776702416181    6.29552695578139    4.61423854713247
H        -0.03494143923627    7.51425024885400    5.23347164138393
H         0.53875168580527    5.91444312862791    4.74983231395594
N         0.80893084642350    8.30742773904840    3.01030909137114
C         3.08114111717956   11.63211158118512    3.21542172936671
H         3.94779898488909   10.97051263482145    3.30971778254962
H         2.93145865225435   12.14047691585966    4.17186477324561
C         3.32958200480015   12.64976883220363    2.13155784723720
C         2.77940947083826   13.92360674999574    2.21591901841698
H         2.21890639303443   14.20837350854913    3.09619519230755
C         2.96685622687606   14.84148823615896    1.19677019580023
H         2.53506782588896   15.82773956743099    1.27584412162434
C         3.71252320649922   14.49768328107287    0.08250626457119
H         3.85961421245765   15.21261796479535   -0.71212974577775
C         4.28306851279908   13.23860440648767   -0.00101946521247
H         4.88104542789776   12.97166835345936   -0.85918554780152
C         4.09336752609539   12.32156030379154    1.01722299218237
H         4.55759013465638   11.34664120441190    0.95422362919270
P         3.64793122029181    8.25517968798854    5.17475024731880
C         3.72769991161534    6.49905154212369    5.65624708459110
C         2.78331533988025    6.05660284395223    6.57948152525787
H         2.04560944354074    6.75188500301338    6.95851856003750
C         2.79196273872082    4.74379154745489    7.01193860529307
H         2.05982658930900    4.40717463084200    7.73044140310214
C         3.74092964939687    3.86135543099917    6.52038444984008
H         3.74858184709828    2.83541654077788    6.85478604922780
C         4.68095432501935    4.29631860096926    5.60034100473799
H         5.42259064860753    3.60981571717491    5.22044891052063
C         4.67928964428646    5.61037443730936    5.16652835973336
H         5.41723782539462    5.94326142875111    4.45036873896317
C         4.74598984207494    8.33111950927341    3.72620469750551
C         4.34784907038629    7.61925142539228    2.59464784598942
H         3.46674420016567    6.99152332535269    2.64850133156717
C         5.07426740379282    7.71149492012918    1.42290247529042
H         4.76760902559182    7.15103759949958    0.55211896235059
C         6.19406177492713    8.52901169402241    1.36581496872941
H         6.75958227295044    8.60476731830398    0.44970502707627
C         6.58592736976610    9.24745741516689    2.48333241866079
H         7.45593592194566    9.88502028966003    2.43820000178551
C         5.86483818062657    9.15412874626793    3.66229925006364
H         6.17211825713639    9.71791388252054    4.53205473314294
C         4.62886088819569    9.05755388032155    6.48255887215044
C         4.29948763218997   10.36724501843742    6.81851737826572
H         3.47392910900367   10.84813686337897    6.30800692634792
C         5.01904121442267   11.03663177489508    7.79095740523825
H         4.76488230205416   12.05411785307412    8.04830988508488
C         6.06500712798930   10.39688505982413    8.43685520506950
H         6.62572316519832   10.91625089842409    9.19876056096913
C         6.39080195549130    9.08992987870363    8.10921449597472
H         7.20494365358097    8.59394617266274    8.61553761490691
C         5.67705600729793    8.41631977776464    7.13461123272159
H         5.93003172623139    7.39698452018035    6.87985174179589

