78
CSD_code = PIVMAK | q = 0 | S = 0 | Stoichiometry = C40H34IrN3 | MND = 6
Ir        0.18809572591629    3.44111882727049    4.18129964642834
N        -1.61020958067976    4.11410712655043    3.45436744347544
N         0.95620036989430    4.19716295834477    2.44825536681650
N        -0.52439991747310    6.08393091345730    2.59098447887622
C        -1.54064975630943    5.46487089992367    3.13998888668299
C        -2.85284592078873    6.04844026934922    3.24447183365244
C        -3.80860440541716   10.10910537232796    2.49150613514644
H        -4.05173213035967   11.14265208245446    2.29174678049886
C        -2.71451351697731    1.40217866469485    3.27362290472749
H        -1.80401483642266    1.59776680336222    2.72456778736218
C        -3.40389046606132    2.47957087915290    3.83817237089648
C        -2.90331722427474    3.83118472788749    3.66336908138451
C        -2.22059689419007    8.43825971591567    3.16098759245937
H        -1.22930038256809    8.16789997647282    3.48735317136505
C        -2.53340893512863    9.75900057262358    2.90474914082555
H        -1.77768726736825   10.52115308704017    3.03006027936450
C        -3.19225609042351    0.11466024764420    3.40806495443972
H        -2.65180251483800   -0.70920487464905    2.96507580807324
C        -5.06148453170471    0.93787161868121    4.66420739078356
H        -5.97659166995173    0.75540116187950    5.20872195671969
C        -3.69391278878269    5.00097416788498    3.55432421261914
H        -4.75876853857427    5.03809815437115    3.67855967762239
C        -4.46454242595863    7.80325764166588    2.58492550710478
H        -5.21504754371809    7.04024316826152    2.44068572010856
C        -3.18096070531786    7.43727885915404    2.99728895126214
C        -4.58940073284374    2.22965825253793    4.53040376559522
H        -5.12797164893909    3.04998172116398    4.98062117658576
C        -4.36712461779617   -0.12284350945082    4.10524999256007
H        -4.74122721455344   -1.13041617547466    4.21032178017491
C        -4.77289216374102    9.12583591090689    2.33561530015056
H        -5.76870380239662    9.39351089605050    2.01187097007396
C         0.58884604765114    5.50917661855884    2.20061811963984
C         0.33677520289055    8.20070280658740    0.72241775853650
H        -0.58649892358133    7.73568707177950    1.02731836029870
C         2.61997664044545    2.62010842197367    1.57045721232348
C         1.54166299423764    6.11157923512504    1.30758199930911
C         1.52636311509881   10.09365322055177   -0.15333010245536
H         1.52786295151353   11.10795828519782   -0.52537635046846
C         1.83684316770337    1.48548862890958    1.80416509772186
H         0.80182366154507    1.61613294160107    2.09069875080272
C         3.95103264875611    2.44774767991983    1.18653517452544
H         4.57307194377101    3.31269484930208    1.01239820084929
C         2.43714198629189    5.10724306128210    0.99960981891018
H         3.25191473122532    5.16181680113778    0.30393391699535
C         1.52525001445906    7.47329892083205    0.80974268115487
C         2.03976128786026    3.94353819163094    1.69931596792928
C         0.34178637892379    9.49803796447015    0.24864512784790
H        -0.58775999593095   10.04609417081964    0.18959727930167
C         2.71320957160907    8.08328742867601    0.39897865298244
H         3.64388421101468    7.53991803292853    0.47275535049448
C         2.37260753328437    0.22117831340853    1.66951096741902
H         1.75642881144957   -0.64689342363249    1.85339589826002
C         3.69780230189583    0.06261087090386    1.29372797079318
H         4.11719515238442   -0.92684250075396    1.18687143204882
C         4.48222526531192    1.17936692805707    1.05339249079918
H         5.51563856217559    1.05899881245988    0.76211665792159
C         2.71162337955117    9.37975521149899   -0.07643293776209
H         3.63956053809656    9.83923416939364   -0.38647413190177
C        -0.61584511222392    2.21792119106223    5.75612241734232
H        -1.59305397626567    1.82735225999407    5.48448873623856
C        -0.56250439959573    3.53857260222120    6.19838897159103
H        -1.49457290900941    4.10054929982447    6.19685551615181
C         2.02858867340979    2.56659791991821    4.94699951069240
H         2.64421162965047    2.20620627706060    4.12880135757374
C         1.82130194545417    1.54813857020399    6.04850417681747
H         2.42169255519575    0.66382044413000    5.82846713579233
H         2.18576198058036    1.95768560395466    6.99142740975859
C         0.34687014494073    1.12997336564217    6.17392502292614
H         0.12423536536231    0.82311769919262    7.20139048112333
H         0.16695864784149    0.26473568755140    5.53328545661336
C         1.71094630060875    4.62214977363812    6.47341503118534
H         2.58445165001250    4.55220790379187    7.13055581570847
H         1.54609348053057    5.68240392119580    6.26981148098540
C         0.46897667947360    4.05074008220001    7.18021727815042
H         0.02116155914593    4.83706945921837    7.79052129057524
H         0.75226661686437    3.24190674299784    7.85483017897943
C         2.01898981460221    3.94425407583209    5.15965332963928
H         2.63600230151312    4.55701429029569    4.50292797403580

