62
CSD_code = PIVMEO | q = 0 | S = 0 | Stoichiometry = C34H22N3O2Rh | MND = 4
N         4.25809293557566    9.62003865396576    5.89368786219870
N         4.67557106101918    7.27903406104456    6.24687592900623
N         2.59511269433116    7.61861622393050    5.09205048237360
C         4.20958699454670    4.33044731055788    5.64826726860232
C         1.78628844479893    6.79407406441311    4.40900172898549
C         0.66987035668109    7.28749597132991    3.62321892060399
C         3.37795175584836    5.45967419385494    5.28300085527012
C         7.03408725220220    6.98269011318656    8.00710432230083
H         6.00340995292298    6.68239018579670    8.10574773570567
C         4.62714844567091   11.99849795837197    5.47919701179825
C         3.72834040921717   12.08095992649757    4.40871465057324
H         3.40038971966257   11.16721333073767    3.91271878263706
C        -0.33190917440476    9.03929896343487    2.29783110543412
H        -0.27008819865139   10.01510570628025    1.83904704373362
C         3.60881554628420    6.84177360625393    5.62206174191793
C         3.65384741171349    3.05089656114832    5.73178826083487
H         2.59958776343517    2.91517027194556    5.54090044903618
C         8.04216999150585    6.19231231136035    8.52376622147663
H         7.79243644114101    5.26716406578283    9.02283661224484
C         5.04795104218029   10.70116270205295    5.97649830198709
C         2.22723604414710    5.45616548569421    4.52123094561636
H         1.77166391755726    4.61420061224465    4.03717512403878
C        -0.48314003826042    6.52041998589411    3.45052639209651
H        -0.54697703036569    5.54687466833055    3.91281864924586
C         7.33715176283326    8.18021005098118    7.35463061711049
C         8.67606502864495    8.56540243808449    7.24814808425741
H         8.92747012088281    9.48145544357742    6.73448306235438
C         6.30224637945567   10.36200268239548    6.53420122198616
H         7.10820777706651   11.04904484814554    6.70417053062002
C         9.36653076349104    6.58267205718550    8.40882336067309
H        10.15340602598753    5.96420426427599    8.81536841406706
C         4.99350133348079    8.54605748305502    6.36022893906578
C         0.73736171886260    8.55203553886020    3.02568052715570
H         1.65795209228190    9.13117603515173    3.09971058044436
C         5.57066569886820    4.48730229155672    5.91834651356542
H         6.01225942060795    5.46788546867823    5.84536281901834
C         3.76578611603995   14.47543259249525    4.53785017361658
H         3.42846130665894   15.43629275794257    4.17917473949979
C         3.30248428379997   13.31162557115781    3.94600976255503
H         2.61016461191848   13.36494559653442    3.11872033060203
C        -1.54871896784755    7.01617935245096    2.72569083090705
H        -2.44232899999444    6.42079677910923    2.61005810655801
C         5.10175398035548   13.17877077856516    6.05333003934473
H         5.78884480459228   13.12637180890408    6.88440427790756
C         4.43345250117658    1.96679812996822    6.08266382522012
H         3.98863480866163    0.98416241843647    6.14840317294669
C         9.67861838178167    7.77300546281893    7.77072903019552
H        10.71025804920792    8.08094763232562    7.67786448509787
C         6.34469869441820    3.39907456532083    6.27103616420926
H         7.39594856506743    3.53870588020439    6.47834103040764
C         4.66876966962591   14.40447619153945    5.58756405932183
H         5.03163846216256   15.31171264283027    6.04764990645038
C        -1.47931417378846    8.27677222988093    2.15245428994842
H        -2.31634018037054    8.66086334217203    1.58894601299687
C         6.28634531299533    9.00863399361925    6.80102795292302
C         5.78200287574683    2.13576326834075    6.35453173819320
H         6.38958066564189    1.28580431512218    6.62903158094608
C         0.42102871862949    9.27602359769021    5.74090113316953
O        -0.70913813053104    9.17187811173225    5.89166880695314
Rh        2.25661190642818    9.50901088100609    5.70389604259071
C         1.99696406874991   11.16944396015750    6.47775424030982
O         1.76333080763787   12.13928260360231    7.03947719909266

