66
CSD_code = PIVPOB | q = -1 | S = 0 | Stoichiometry = C33H27NO2S2V(1-) | MND = 5
V         2.60895706873223   -1.48408105139816    2.42747061920940
S         3.12672766844383    0.72553544249597    3.15025632514115
S         2.99666169456795   -3.83191828860061    2.34922365941353
O         1.17965829030063   -1.67391947903384    2.95309106472304
O         2.68477533534590   -1.08906450709988    0.94650767432018
N         4.27411835665783   -1.73685152587884    3.60076461747609
C         0.39762043973550    3.18012346538962    6.14974448934421
H         0.39450050589025    4.14761653961188    6.63457307494653
C         5.27870102135201   -5.39068645311951    3.56653661939779
H         4.29881654366990   -5.19039947927708    3.97338833815383
C         5.60087873503427   -4.86320685647604    2.32485358417594
C         4.39790548987585   -4.39714268919816    0.15200448872152
C         4.12936059579059    1.20880267355176    5.71968886873559
C         3.75063171687183   -3.54969765872619   -0.74658207103759
H         3.41708060612630   -2.56990930628632   -0.42756218893530
C         5.27469411056251    1.63462364427045    5.06350126540344
H         5.29589150799881    1.59415340298021    3.98481148631257
C         2.94799206902110    0.60274959049232    4.98588993050483
C         4.20860376032533   -1.49731944819988    4.91195034586825
C         3.46137591137892   -3.97193860907815   -2.02996637739974
H         2.95907915028908   -3.29796859759679   -2.70950546694641
C         2.92881194595159   -0.90262891499936    5.39149124680123
H         2.82752284640783   -0.99502857910939    6.47577196458670
H         2.08823005165322   -1.39835616482883    4.89687907921710
C         1.63989041919947    1.29490883249228    5.29387913087730
C         5.31181084242166   -1.67221562549158    5.73678515479039
H         5.22931308561768   -1.47315672887871    6.79481528281834
C         0.43674810586367    0.73287165256954    4.86849784353508
H         0.43805409667464   -0.18593263026727    4.29465607584384
C         7.77319785789219   -5.90402088058579    2.49817300866739
H         8.74747544695663   -6.10341878371882    2.07204017543064
C         6.18996694478982   -6.15933970726263    4.26966137160710
H         5.91931094292688   -6.55631684376835    5.23826767763488
C         6.56966609311412   -2.31015811262089    3.81425562482409
H         7.48460456141873   -2.63701083548577    3.34319012512825
C         5.19071898804621    1.74531300943692    7.82175891766655
H         5.14925176936209    1.78855764527228    8.90201350685727
C         4.68786162909437   -5.69530791589463   -0.25881481915658
H         5.13258336192909   -6.39517217932933    0.43387044917259
C         6.51267973308739   -2.07822903502356    5.17861006958053
H         7.38889835937772   -2.21203312845257    5.79632794612135
C         1.60258409512599    2.54205793677379    5.91071493104341
H         2.52193405108911    3.03217979824683    6.19663599653630
C        -0.79339222681689    2.59183471082129    5.76655278905729
H        -1.73473528267807    3.08905040937720    5.95807561503257
C         4.66761296300478   -3.93840868711232    1.56651087425067
C         3.79769817124997   -5.25083490597157   -2.44373040921206
H         3.57432063020447   -5.57812296975193   -3.45019378425784
C         4.10368597501989    1.27184136361177    7.11213555062051
H         3.21749858001365    0.95620293578183    7.64622523632494
C         4.39602764807683   -6.11489416855659   -1.54513964115076
H         4.63415933015414   -7.12813721973899   -1.84163649088675
C         5.42125531249987   -2.14176431397854    3.05217199598382
C         5.34130368146680   -2.53306476144691    1.61620482198542
H         6.33308111797804   -2.57956436944036    1.15918124398382
H         4.71709216346733   -1.81443127863627    1.07698698390957
C        -0.76397395514009    1.37268728846254    5.10892343352046
H        -1.68433236450923    0.91847956985264    4.76973817333638
C         6.33164822942045    2.15922401702148    7.15423421378493
H         7.18479123910418    2.52372476050196    7.70992409023847
C         6.36666614403611    2.10378658851379    5.77288090406820
H         7.25100621999628    2.42634285668516    5.24095866086458
C         7.44129525941418   -6.41826274579711    3.74080742370655
H         8.15484949351328   -7.01758425376500    4.28963959040169
C         6.86447906983283   -5.13125102036491    1.80058411697502
H         7.13541679472590   -4.73841742394923    0.82974350035438

