66
CSD_code = PIVQER | q = 0 | S = 0 | Stoichiometry = C28H33ClN2ORu | MND = 9
Ru        9.04101741347567    2.37156006530592    4.03287560773802
Cl       10.96114694906740    3.67914494149953    3.67498885332368
O        10.14980850436385    0.72406855769627    3.44438840655196
N         9.57564218102791    2.23610821725371    1.09593117584604
N         7.78750164458307    3.39838168470389    1.50882153075798
C        10.94198332370055    0.68803105225281    2.41529542164453
C        10.71436231662496    1.41255543913628    1.21728522059053
C        11.60190780432383    1.28406103891134    0.15775162984165
H        11.45392335614063    1.84555385917308   -0.75119039036617
C        12.69832388641784    0.44233526706776    0.23588365982670
H        13.37275192606037    0.36402245332183   -0.60296223262717
C        12.91771175071266   -0.28990544040357    1.38924267883853
H        13.76849390947210   -0.95172791819717    1.46066781196032
C        12.05754052596307   -0.16645600419844    2.45716800922522
H        12.21484608224957   -0.72497018120041    3.36744366370477
C         8.76214753025082    2.66406773654261    2.06836308699814
C         9.21695084653902    2.77923631037004   -0.21177291232745
H         9.12349449579788    1.97187034588621   -0.94212658322252
H         9.98947165547579    3.47851331450669   -0.54638026774306
C         7.89303063885588    3.48708252248894    0.05899004449912
H         7.89506911321264    4.53200238172059   -0.26193977239168
H         7.04238664890952    2.98449770318514   -0.41485892203442
C         6.80884899585754    4.18684102156755    2.16451886156312
C         7.15201773893325    5.46418387431507    2.62261780293049
C         6.16398710318429    6.23863333664441    3.21153505020144
H         6.41457656070830    7.22633553742302    3.57260819441664
C         4.85782472441207    5.78212736546641    3.34349718276873
C         4.54186653640053    4.52084910413560    2.86311907858425
H         3.52803570070016    4.15581867253855    2.94938588980111
C         5.50103225344727    3.71457160781795    2.26394001140810
C         8.54646188007128    5.97968947554253    2.47444631313278
H         8.65885222026892    6.93460231377454    2.98001278952055
H         8.79419973310667    6.11888627190817    1.42283461365474
H         9.27052323107927    5.27437675925751    2.88873879378661
C         3.81867354711824    6.65255308901500    3.98237766997710
H         4.14350497197039    6.97413533740454    4.97092957538841
H         2.87296334885816    6.12578923544840    4.07964433468408
H         3.65677037173671    7.54626592721838    3.38074878401709
C         5.12605052308152    2.36807864343769    1.72017041512523
H         4.78566578252666    2.46370285142474    0.68824694260635
H         4.30976239565299    1.93488343208041    2.29467052528263
H         5.97856281481464    1.69252622058449    1.73849324163328
C         6.93512887557067    2.05994530107204    4.87394445054514
H         5.98202828111292    1.85579241842518    4.40177675360744
C         7.26026337176104    3.40346397801530    5.19200686193486
H         6.55588887771960    4.19296758297242    4.96185386347881
C         8.46131258347067    3.70452189329766    5.84704294829330
C         9.27374897487448    2.62463159426027    6.30583590565442
H        10.15749761895570    2.84719031608646    6.89418438881807
C         8.90842716633902    1.30810967131082    6.06430931776513
H         9.50944508728321    0.49924612404035    6.46524757914454
C         7.74736364020357    0.99374479434713    5.30452333520992
C         8.85162572820259    5.11561686193677    6.16847774769342
H         8.09583040396496    5.81569133619436    5.81965738344700
H         9.79859703600608    5.34990938065326    5.67908598669952
H         8.98634647047215    5.23909056453369    7.24327430688776
C         7.34959183375717   -0.44640537784152    5.08349597202998
H         8.18200633626123   -1.07883121901595    5.41016540610068
C         7.10367728231385   -0.73052118436309    3.60090429502420
H         6.97902829977159   -1.79861706986064    3.43871087735886
H         7.96027684015636   -0.38535268971002    3.02151275532595
H         6.20769318514055   -0.22441187307464    3.24890940385154
C         6.11810835230321   -0.79184847740637    5.92668879720628
H         5.26196071443928   -0.19231820917007    5.62390596045590
H         6.31072486017446   -0.60668454773126    6.98176931710511
H         5.86363524259847   -1.84171459299912    5.80181459524068

