179
CSD_code = PIVVEY | q = 0 | S = 0 | Stoichiometry = C60H106FeN2O10 | MND = 6
C         9.65260936513568    7.89368746276380   33.42592355988874
C         8.54052550684192    8.13584484570127   32.57848026900680
C         8.46057158254035    9.27132454342754   31.74002382428194
H         7.53626126145920    9.30001768335113   31.16769580059717
C         9.15293059076963   11.28724458824662   30.73948434694437
C         8.04022584224171   11.48836979701646   29.92102833324547
H         7.23399058115640   10.77506636979629   29.94217997740430
C         7.93991162360008   12.58989955655140   29.08793351515036
C         9.01060558915661   13.50681256656165   29.03783859130937
C        10.10994454509166   13.31521654315110   29.85542227636700
H        10.88990739176967   14.05639954997831   29.79250032476316
C        10.20228852431758   12.22879272609734   30.72365741891409
C        12.28086317943378   12.74514425200079   31.69380980015304
H        12.31530556076338   13.64735208898642   31.09315500997836
C        13.40031757999637   12.56741931818406   32.53670129459071
C        13.54752119782260   11.43657166376984   33.38627640392838
C         9.71850603059185    6.68129078412857   34.32333438885696
H        10.66520144937208    6.70444703858157   34.85891663372955
H         9.64751386226668    5.76538875705758   33.74334898948196
H         8.89640081670964    6.68800085369848   35.03332274751718
C        14.77422132947034   11.27589995492915   34.24606665840179
H        14.87703521517681   12.11638582065337   34.92740232905901
H        15.66927950269998   11.25927824450501   33.63008000759241
H        14.68811402669501   10.34785387558916   34.80703822359834
C         7.36219138412632    7.27957869005083   32.46152839444907
C         6.19372015270759    5.37096537176472   33.14768950178303
H         5.29181857274491    5.93858181052703   33.38726652999967
H         6.33018550502474    4.55452698076938   33.85292973364584
H         6.10057083785324    4.98711411237425   32.12920944615184
C        14.42630124487084   13.60357554188683   32.50073111587375
C        15.09719129091111   15.64734670482644   31.56058843819419
H        15.22513907031863   16.12016271568725   32.53712158103593
H        14.71857721493612   16.36451448805954   30.83615634977643
H        16.06235261040979   15.24989221742675   31.23829830861315
C         5.67353393647198   12.10649624087297   28.49464258459422
H         5.43170604746033   12.05090092962211   29.56417366234732
H         5.80635987188261   11.08610211343346   28.10856013517310
C         4.54443112580851   12.81006903063260   27.74830178431144
H         4.52165490028177   13.85268957082231   28.07114697753804
H         3.59847349992633   12.34488343379976   28.03120442656901
C         4.72063423705501   12.75130557569367   26.23303643570344
H         5.71355086117193   13.12337630125811   25.97829452857195
H         4.65502769324374   11.71294924118991   25.89941911997245
C         3.66407039511934   13.58687998600699   25.51619108613372
H         2.66960294054292   13.22834961356243   25.79321573987076
H         3.74271880128731   14.62439102219267   25.85048673443049
C         3.81261175372208   13.53835391992495   23.99791693222988
H         3.68539740850502   12.50994354324567   23.65195236546233
H         4.82020297950192   13.85714584775459   23.72374176550329
C         2.79351171668545   14.43814715915996   23.30381322992172
H         1.78455510690601   14.11825009340431   23.57531992749972
H         2.91912221480470   15.46299674507075   23.66238340855259
C         2.93736342971882   14.41836147342301   21.78455065585228
H         3.95125090915113   14.72112394629671   21.51467947245756
H         2.78831844755073   13.39970032500313   21.41872030651707
C         1.93677400490557   15.35169576728017   21.10807881290271
H         2.08029355929217   16.36671803962983   21.48717607014756
H         0.92142383661797   15.04492017277479   21.37087527136876
C         2.08513540175055   15.35775096449943   19.58912944596438
H         1.93185813829535   14.34595754714494   19.20615905056769
H         3.10187243765096   15.65885937947230   19.32801764046903
C         1.09281603848693   16.30654018391080   18.92205456513147
H         0.07462692472925   16.00243377886931   19.17689652109671
H         1.24084505488157   17.31579955594832   19.31442302337890
C         1.24798390193210   16.32953623061810   17.40389543156127
H         1.09591813181615   15.32176457989828   17.00987465246105
H         2.26634943618595   16.63223953857919   17.15101784271891
C         0.26003308220266   17.28515234520849   16.74012035093838
H        -0.75972130300693   16.98089390087106   16.98849018059521
H         0.40804258344475   18.29143209298672   17.14002422190618
C         0.42232350744335   17.31730094963744   15.22280201859226
H         0.27276046778411   16.31157677838416   14.82252688276003
H         1.44180277745788   17.62182426646794   14.97660023823734
C        -0.56287021803979   18.27574823365379   14.55901126682102
H        -1.58368477739748   17.97075167663015   14.80214092083232
H        -0.41631665518364   19.28065483608034   14.96293490043904
C        -0.39407422904182   18.31253916404127   13.04244031958822
H        -0.54104075970382   17.30786786386628   12.63850066082634
H         0.62621335838574   18.61864524259417   12.80150344252205
C        -1.37720598013648   19.27201970026942   12.37707397181482
H        -2.39887178086052   18.96502456370206   12.61410612958663
H        -1.23380723431715   20.27576148404795   12.78507293374384
C        -1.20095857369686   19.31441547493627   10.86144727696407
H        -1.34467292649176   18.31103256128609   10.45303320304384
H        -0.17964929300938   19.62231751927159   10.62691950569192
C        -2.18135753306425   20.27533084373409   10.19430834432334
H        -3.20417390574339   19.96355477712886   10.41990633033339
H        -2.04447442391299   21.27656214948273   10.61069175676770
C        -1.99321787383082   20.33128910692124    8.68051613703125
H        -0.97102498724783   20.64379210609049    8.45770087141857
H        -2.13161550564640   19.33142458150736    8.26246228389422
C        -2.97113326857345   21.29532441595454    8.02073936704224
H        -3.99730039956273   20.98055442725824    8.19864803441258
H        -2.80529232051251   21.33606380825711    6.94656340917959
H        -2.84886863020556   22.29807575886922    8.42512775799082
C         8.76216263150746   14.47018412094162   26.86620483412266
H         8.45044100502639   13.44712506819621   26.64129789244078
H         9.71525706564474   14.65950890624731   26.35027964310228
C         7.71089940315113   15.46205994723087   26.37691125561796
H         7.99233448037241   16.45987742798392   26.71754672649718
H         6.75092841279518   15.20976973659381   26.82832789234318
C         7.61011530776227   15.43875324733133   24.85473120564501
H         8.58959911752749   15.67446063741758   24.43058138639315
H         7.34702698540667   14.43040236449339   24.52450833908210
C         6.58369198835748   16.43062421420121   24.31289948579415
H         6.81850400017773   17.43154680661648   24.68159795520917
H         5.59015738135765   16.16679828223875   24.68006239342127
C         6.57972683264200   16.44309542939459   22.78602800692407
H         7.57884549789268   16.70691122750125   22.43015747131027
H         6.35801596385022   15.43816875039063   22.41769701228833
C         5.56815957886792   17.42579657957800   22.20202320139550
H         4.56151390356552   17.14265482072689   22.51599529809588
H         5.76786528932498   18.42637411044742   22.59263612016734
C         5.63682704920753   17.45558776628761   20.67718914053334
H         5.44863354446429   16.45145050653923   20.28873010210986
H         6.64660896565245   17.73981717103548   20.37050746582048
C         4.63510335888042   18.42785738224403   20.06013928730120
H         3.62199243536702   18.13177049309167   20.33983183884059
H         4.80929727685894   19.42970938633632   20.45986192714093
C         4.75129813849657   18.46374754510028   18.53844335832856
H         5.76704549706801   18.75861648492667   18.26323124920190
H         4.58390305053005   17.45948881673375   18.14099381331945
C         3.75818604981582   19.42922085810807   17.89741007284861
H         3.91772279907318   20.43242363727436   18.29996733138489
H         2.74118204960517   19.12733084352141   18.15619469414710
C         3.90395897236929   19.46571812834910   16.37832876673756
H         3.74736395335374   18.46113682030998   15.97736176180734
H         4.92346906106303   19.76456075014031   16.12209831735649
C         2.91818813085462   20.42842247965846   15.72197373564763
H         1.89851988714030   20.12522171323766   15.96866845568790
H         3.07092932089347   21.43242305358613   16.12529347993794
C         3.08119396755954   20.46412577728390   14.20464066842595
H         2.92864555036568   19.45962003875060   13.80191769492365
H         4.10321435891201   20.76321305335927   13.95899042186070
C         2.10119084148941   21.42738993926993   13.54039559220264
H         1.07964637334370   21.12576235660682   13.78143336193834
H         2.25276207726102   22.43155724173045   13.94383405994048
C         2.27195306741214   21.46243341402762   12.02390027896573
H         3.29581250811617   21.75867792435681   11.78256148849088
H         2.11803982713084   20.45853419737482   11.62015111365760
C         1.29686662541800   22.42902873852019   11.35708100995727
H         1.45274757389490   23.43309516887912   11.75916670337550
H         0.27395177317387   22.13228874408564   11.59862089931382
C         1.46670800348882   22.46173039462716    9.84040667027070
H         2.49170774429071   22.75276800179029    9.59747712068061
H         1.30778597999767   21.45804711850812    9.43796985564239
C         0.49508434226321   23.43210347675313    9.17393872642116
H         0.66295306381543   24.43749853343062    9.56785106598504
H        -0.52851626317127   23.14630944823150    9.42547263101682
C         0.65157600271245   23.45448200187359    7.65555750471937
H         1.67688008263900   23.73524558128677    7.40317325243726
H         0.47767866624181   22.45125232206826    7.25946682150307
C        -0.31683560687906   24.42984256057843    6.99824136594633
H        -1.34534079212664   24.15132382025860    7.21676054408719
H        -0.18505268609973   24.43280141834287    5.91865724813867
H        -0.15021465777814   25.43974675267040    7.36710511875181
C        11.51463508938612    8.18150091701435   30.24316498690879
H        10.98810183633357    7.47391073346198   30.88722645925213
H        12.26372704458190    7.65190628009131   29.64703841057722
H        10.79605508544060    8.65624256795145   29.57866495147682
C        10.24118128793177   12.69362274315937   34.56737858239810
H        11.31197927073435   12.90682381404388   34.60058496806857
H         9.78272932676643   12.95532151113395   35.52561406185701
H         9.78637880767769   13.28705631357727   33.77710240716314
N         9.34265187216922   10.21769334043809   31.60164590474714
N        11.25102144736960   11.95413179853335   31.58971982103359
O        10.65353710834235    8.65484155705265   33.48189777056999
O        12.69094985666544   10.51921333812692   33.48191409779111
O         6.43924753608014    7.49806662699108   31.69881820880478
O         7.34322795065537    6.19067969799567   33.26688898076783
O        15.45132264239320   13.63793763309477   33.15011030228263
O        14.13298456122929   14.61354882937484   31.63177652842410
O         6.85488226088743   12.85974449357481   28.30595484164760
O         8.99739337648035   14.63309113189564   28.25857063774696
O        12.12589189445978    9.21636831325428   30.99396100252349
H        12.77021537156061    8.82026721992434   31.59417164805712
O         9.98803258589642   11.33362828491362   34.25767134681697
H        10.38212648387232   10.78448985928526   34.94705355579816
Fe       10.98407611381886   10.33628945824598   32.53718594005046

