102
CSD_code = PIVWOH | q = 0 | S = 0 | Stoichiometry = C50H39Br2N3O4P2PdS | MND = 4
Pd        3.79966398515384   11.28307028458099    5.37310413778072
Br        5.24594072859948   13.21812722878799    5.16449948763852
Br        1.27692194265348    6.11353981344414    7.14460569102028
S         2.50523772181697   10.61754473890373   -0.01102447982125
P         5.65415687742376   10.01158385463863    5.32172019612350
P         1.96380415846198   12.59818315583855    5.52219321163952
O         3.64437892402106   11.27693469834216    0.56369971162719
O         2.13024253364475   10.98038692430784   -1.34748576353950
O        -0.66078626398785    8.55693540767132    0.86782658361541
O        -0.64105878293908    7.06869369319815    2.43509886725480
N         1.14751496350025    8.55902628659404    3.88961651517735
N         2.06938363309786   10.50746097192433    3.27478500315869
N        -0.27133426069346    8.12893802770393    1.94770619309072
C         6.71818462312887   10.57076978625217    6.67859471783548
C         6.02882753777911   10.80686638785288    7.86970584100661
H         4.95053601778636   10.61878736217970    7.90491975299547
C         6.70191714086803   11.28086845868883    8.97734894542559
H         6.17042777721497   11.46441618449280    9.89975671412117
C         8.06349270407405   11.53414194083799    8.89533026827048
H         8.59150362773869   11.91386195071872    9.75715722619129
C         8.74265209209076   11.32176342174726    7.70807735654746
H         9.79792662558393   11.54109656696541    7.64431390384709
C         8.07510514976823   10.84177058440333    6.59319319993272
H         8.59986855928880   10.70510891156317    5.65936850531388
C         5.48394391388066    8.21939019042557    5.60741466047284
C         5.87764094363081    7.57796801599836    6.77495897499645
H         6.39975518725866    8.12953448869015    7.54479911418746
C         5.59657172253119    6.23331592395926    6.95153917472139
H         5.89948825108687    5.73828248029003    7.86218166076785
C         4.91919714874277    5.52552123418813    5.97351313962096
H         4.68724585367772    4.48218895162495    6.12404149429899
C         4.52892807042407    6.16015304617517    4.80352064342184
H         3.99434493587922    5.61023167117013    4.04183851386440
C         4.80852453485073    7.49989307994591    4.62314890652149
H         4.49464543127173    8.01312031757388    3.72110499480905
C         6.54296127557926   10.04612306338213    3.74990078103893
C         7.71701127333872    9.32447219461623    3.54813248829329
H         8.13324869436961    8.73436109403946    4.35427601845735
C         8.33089757055731    9.35903566093940    2.31039076597452
H         9.24731085923734    8.80944259752678    2.15068368561790
C         7.77051922859996   10.09151864524182    1.27332895094957
H         8.25833060461419   10.11339107004904    0.31012322994059
C         6.58578387081460   10.78308056488843    1.46403139787517
H         6.12280360770895   11.32977959889670    0.65772721140685
C         5.96830177478015   10.75813411093056    2.70213873333621
H         5.02570703394938   11.28754265773246    2.84720795459795
C         0.32849247712878   11.81719815649222    5.34461197228493
C        -0.05022921967551   10.89294651087362    6.31640984323399
H         0.57177415939092   10.76550579211847    7.19507446723582
C        -1.20005008953351   10.14412714087872    6.15815603228294
H        -1.48440644583013    9.42435017895871    6.91196004849316
C        -1.98302404528619   10.31088075056894    5.02541153631687
H        -2.87260635575628    9.71385728172221    4.89199886021297
C        -1.62414553359506   11.24457652372289    4.06743283975960
H        -2.23856719495772   11.38151015791325    3.18966059224624
C        -0.47195086278785   11.99627502421011    4.22353854650267
H        -0.18733055347276   12.72055405596023    3.47322342205338
C         1.94347408334530   13.93782595982296    4.29730446232927
C         2.56167422040115   13.66574576295431    3.07816775994553
H         3.04712373414607   12.70574796914453    2.91967999891714
C         2.56352047604907   14.61613811978104    2.07496678817055
H         3.04318147856163   14.39454003691127    1.13325086384100
C         1.96314872565719   15.84670604964427    2.29044566812959
H         1.96942796993211   16.59471571758640    1.51160015924501
C         1.36812513395382   16.12648019378911    3.51007005082019
H         0.91567920066270   17.09229439152758    3.68164606010532
C         1.35442830666084   15.17697791381613    4.51713009195533
H         0.90331966864087   15.40600905559445    5.47179360477656
C         1.82086615665251   13.35122542483906    7.16903707682994
C         0.63998532104738   13.93939694067875    7.61495052075075
H        -0.23228172484041   13.95124534097379    6.97458726837789
C         0.58102052726023   14.48501200231447    8.88368987642108
H        -0.33368226100345   14.94532625705482    9.22781114384877
C         1.68964865303853   14.43888949723845    9.71500998625766
H         1.63710002136138   14.86933161224000   10.70401448346615
C         2.85826579546559   13.83374309787881    9.28337906591127
H         3.71865993976991   13.78967325674273    9.93434972456640
C         2.92382179094110   13.28619506525181    8.01494983860383
H         3.84122942658124   12.80934300187404    7.67039581615433
C         2.00739999814039    9.57374610736961    4.23643529094715
C         2.66224475801574    9.64650465195523    5.46961260327395
C         2.42008855716912    8.60720824949644    6.34276861131486
H         2.87398315327125    8.57053759265025    7.32431828444158
C         1.56748648829127    7.56263667993121    5.95221618495264
C         0.93058591641831    7.52841825477341    4.73928415296335
H         0.26586889132516    6.73938304042875    4.42748449623780
C         0.64711091257908    8.89361393859398    2.64418038486564
C         1.23705459486113   10.13345663501489    2.30592556994720
C         1.04769733921129   10.92642506187640    1.08972593156009
H         1.08056925744962   11.99319011247782    1.29403334849718
H         0.16541901745869   10.63563057165103    0.52933428262554
C         2.71888255627070    8.84262258949263    0.11363773444956
C         3.71961937987895    8.33933952280312    0.92151001769674
H         4.39416705973389    9.02940398499175    1.40618418474283
C         3.83538470903606    6.96631345326093    1.06801623289245
H         4.62265382326247    6.55370485826024    1.68135406513700
C         2.94205292325075    6.12601021695822    0.42039738107850
H         3.02662243685244    5.05663165746639    0.54435247303632
C         1.94649394742791    6.64650179446395   -0.39261287623017
H         1.25656731494373    5.98733495606038   -0.89580617499790
C         1.83492844040418    8.01820785024456   -0.55457776613340
H         1.07405574211478    8.45357667890873   -1.18199716447099

