101
CSD_code = PIVXUQ | q = 0 | S = 0 | Stoichiometry = C38H57ClIrN2PSi | MND = 6
Ir        2.57159070776976    8.75254054731069    7.37236982419182
Cl        0.76495706274867    8.99879517642938    5.92975202604485
P         2.88349482756544    6.58206466892531    6.41250479285118
Si        3.98801766785401    7.24097752821299    4.53831419139470
N         0.66533145438904    5.29752483417755    5.08139673000021
N         0.46861128686921    5.64880917887813    7.22366627247111
C         1.28515235116724    5.87678567331828    6.14735509979276
C        -0.51911090401769    4.73002836583835    5.49890003512579
H        -1.15187184340779    4.20295108309901    4.81494211215498
C        -0.63879470820798    4.95131548815267    6.82012160201255
H        -1.40155991928864    4.65872398017581    7.51048153186005
C         1.12035241773871    5.00939066797301    3.76572201169398
C         0.77078578827033    5.86274376981246    2.71622843973060
C         1.07460231612211    5.45684118681954    1.42236262734881
H         0.80130657260879    6.08327485759770    0.58868610421378
C         1.72383249468217    4.25936717789735    1.18716349829318
H         1.95900409238188    3.96487965275164    0.17501291974242
C         2.06932613780704    3.43476755047733    2.24029707386477
H         2.57694336632682    2.50458985489190    2.03990605283963
C         1.74995663286864    3.77965122232061    3.54696505728932
C         0.05459928643325    7.16280270262688    2.98225107608142
H         0.32546927662510    7.51656415474015    3.98140694553005
C        -1.46219734226976    6.94370504754300    2.94767311838618
H        -1.96784955666633    7.89214012721921    3.10859408767250
H        -1.76845275394764    6.54224795216324    1.98261728889407
H        -1.77970392939193    6.25559635100484    3.72690918079197
C         0.43433520008254    8.25686124595592    1.98397541742337
H         0.12219436194326    9.22039876917417    2.37835171208354
H         1.50947944665287    8.28171467278236    1.82994716235608
H        -0.05735131148251    8.10965375742009    1.02421608998442
C         2.06474779823657    2.83621977937979    4.68684498059102
H         1.48112289347921    3.13115594828242    5.56414630347785
C         3.54631352942967    2.92001450192205    5.06132168365607
H         3.76636237658830    2.21952730795679    5.86417207329305
H         4.17159149802370    2.67056903678839    4.20676962815380
H         3.79605092056160    3.92516650682127    5.39853226078356
C         1.67270254488766    1.39415149568507    4.35491638393532
H         0.65149774254650    1.35055670479306    3.98203964860276
H         2.33304561385438    0.96496267423063    3.60639670478521
H         1.73817332342010    0.78052048440460    5.25093155868523
C         0.71812485808416    5.93024594030393    8.59380475586467
C         1.65179264920657    5.15044097134068    9.28925389767726
C         1.81663856639998    5.37893488328766   10.64877042940959
H         2.52759717689005    4.78882568023766   11.20572988063874
C         1.06811121176713    6.33476281264145   11.30723423225727
H         1.20945862439920    6.49621458115833   12.36587691357161
C         0.12388503593172    7.06556331557315   10.61513613913682
H        -0.47882769363675    7.78685091423324   11.14397996916734
C        -0.07588081401134    6.87663319904792    9.25294477544175
C         2.41176459030345    4.02070504608398    8.63452708911902
H         2.26617497338037    4.06684717293865    7.55344474589467
C         3.91484032079187    4.12504319202536    8.88835225683938
H         4.43673834960436    3.34182034000335    8.34358458687032
H         4.27783406862009    5.08870300572252    8.53826491036470
H         4.15225533924875    4.02191722310793    9.94349895757505
C         1.86026226769069    2.67982846170307    9.12839863472949
H         2.37571269691826    1.85887575439086    8.63472886425240
H         1.99799274761293    2.57640156311226   10.20197870463733
H         0.79651200620334    2.59949536167351    8.91128639138636
C        -1.16862391656138    7.64693746986420    8.55106072820112
H        -1.03965196070499    7.54877098016765    7.47053762181555
C        -1.09987329825895    9.13714349662168    8.88332909376865
H        -1.73695710729023    9.69359539642354    8.20059941071789
H        -1.42658600291688    9.34056382159470    9.90064855071744
H        -0.07988259793678    9.48634962167909    8.76340913257012
C        -2.54163514169787    7.09359095493523    8.94630234117879
H        -3.32304023115226    7.64315556933069    8.42685377914171
H        -2.64055742892657    6.04024463433266    8.69465988651678
H        -2.69918811576961    7.19970441664587   10.01788341917277
C         5.76257279543766    7.35500412607547    5.26084815429400
H         5.87214632651497    8.20797887527134    5.91994826495296
H         6.01839890406664    6.46400074779176    5.82702761177936
H         6.49261533947284    7.45947628875768    4.46422604293866
C         3.54579463221538    8.96383050745850    3.82411418728461
H         4.11309237910760    9.74170518520414    4.32569502141144
H         3.77047695474463    9.02326091991691    2.76238287728822
H         2.49439668778523    9.19285677111364    3.95904505832301
C         4.19532716424471    6.06072597111502    3.04747398293903
H         4.32270944755298    5.02705231633793    3.34018144159826
H         3.36318389563962    6.11315852431269    2.35840445762928
H         5.08792195847582    6.35887327611998    2.50705246996190
C         2.23124263576190   10.72678677162408    8.21636246469834
H         1.21952093430712   11.05748628598010    7.99909681339019
C         3.14374470879076   10.79765493502895    7.16577591720622
H         2.77280509215185   11.16618537940601    6.21053292647525
C         4.63603497695320   10.96053757829569    7.33662107681451
H         4.84983841607790   11.98350022415544    7.66694702794756
H         5.10625832353883   10.83548172580925    6.35851792071753
C         5.24702659120368    9.94547413933454    8.32025222866300
H         6.27363677434631    9.73105121576289    8.01505956549176
H         5.29485117687789   10.37184446285839    9.32376738378268
C         4.45745129268179    8.65379569676026    8.36492869095382
H         5.01882997232229    7.77699356421751    8.05429023370166
C         3.41076057301839    8.43432776530278    9.27411385440445
H         3.25231685487264    7.40887578864707    9.60583246679937
C         2.94212806735455    9.45413019328494   10.28971292899158
H         3.69578535610253    9.55472322894623   11.07895900205429
H         2.03650011864411    9.06215742932389   10.75719783990612
C         2.63395393277682   10.83156357353353    9.67117932962180
H         1.82299748086351   11.29832653909042   10.23430171788156
H         3.50233034066394   11.48786252701286    9.75410963335301

