99
CSD_code = PIVXIE | q = 0 | S = 0 | Stoichiometry = C41H53ClN2PRh | MND = 6
Rh       -1.99400192066021    4.50543247490143   13.53814471313157
Cl       -0.44487525927665    4.53791016995080   15.21759928781762
P        -3.12441939437755    2.77724373114777   14.58383216923356
N        -1.11242636041131    1.07079029821389   15.04524806524005
N        -1.79148331806814    1.81124622433685   16.98148922482795
C        -1.97178151610962    1.94235746980310   15.64260171580835
C        -0.37307312637557    0.43253913434384   16.00255325072582
H         0.37336936499462   -0.29315951771282   15.75474036506711
C        -0.78937574931595    0.89188413772540   17.20064063941410
H        -0.47140605537504    0.64164342508364   18.19131733292590
C        -1.11772545218115    0.78483202920892   13.65389669480949
C        -2.15056844138329   -0.00947008475016   13.13706607671988
C        -2.16998137017931   -0.25268763569097   11.77116888854098
H        -2.95861858129980   -0.85501114982920   11.34793676173908
C        -1.18617599780362    0.25434437336998   10.94403960214630
H        -1.22174461018137    0.06053812576988    9.88197449604679
C        -0.14555392389017    0.98556903988621   11.47878239095451
H         0.63827925733551    1.34342372872406   10.83008681138615
C        -0.08969297435284    1.26555837288011   12.83932819968414
C        -2.50384471458959    2.42219791340074   18.04862350924423
C        -3.82917099386599    2.03308007836848   18.29063725423052
C        -4.49719683056496    2.61937613136636   19.35468312988504
H        -5.51800542550530    2.34797175473168   19.56498140721302
C        -3.86818916308229    3.54555962083524   20.16488941180799
H        -4.40554600851526    3.99073157536148   20.98918240064166
C        -2.55223025469215    3.88718850773991   19.93437779563946
H        -2.06654546698449    4.59263115789366   20.59003876200522
C        -1.84235396384213    3.33682395512859   18.87449226276088
C        -4.10824029264025    3.83470445418110   15.71048295322499
C        -5.49423602362806    3.76523738665451   15.58944986163375
H        -5.93117178810121    3.06229435220617   14.89102845208776
C        -6.31150539853498    4.57904736794665   16.35298184251289
H        -7.38629188693784    4.51332233718088   16.24966103486060
C        -5.75369949159027    5.47220647914035   17.25113861515527
H        -6.39067059953071    6.10159162198014   17.85628829356117
C        -4.37524427294672    5.56677269771068   17.35929835563969
H        -3.93546260395962    6.27715464988377   18.04496388995757
C        -3.55701272628814    4.76712419488100   16.58593535358169
H        -2.48478110513814    4.86458027278575   16.65104217152744
C        -1.94736813232007    6.65090528127787   13.36302259476607
H        -1.58799563918942    7.04364026668219   14.31584797011285
C        -1.00334067172706    6.16276333477298   12.47741069371580
H         0.03629813162488    6.20255589399554   12.79675263456222
C        -1.20803441698917    6.07310401992945   10.98168519751752
H        -0.24392697629994    6.20238130444806   10.48434471077147
H        -1.84815373869245    6.89684301266049   10.66051000985352
C        -1.81142855985669    4.72227432050635   10.54432656752626
H        -2.39316172401754    4.85424953909523    9.62435021121109
H        -1.00041792710358    4.02675136759400   10.31310854200344
C        -2.68846159961430    4.08043313519855   11.59606281283556
H        -2.77457003512021    2.99705761114467   11.48216628643509
C        -3.71122211277080    4.73909973233891   12.27545836771606
H        -4.53181349498479    4.12956159535180   12.65158757857912
C        -4.07842399960726    6.18622429040034   12.03846162153186
H        -5.15302375512826    6.31189100235196   12.18856352685825
H        -3.86441610672336    6.45019976419182   11.00140257605675
C        -3.33524219137414    7.12724623151524   13.00308979277837
H        -3.26743390281457    8.13349595137960   12.57302519163161
H        -3.91305993413964    7.20690153567320   13.92876326092060
C        -3.17456155687101   -0.67593091203009   14.02629439780199
H        -3.07007343867726   -0.29568915902676   15.04507342817866
C        -2.90477993282514   -2.18334819798570   14.06587914474914
H        -3.00178365315430   -2.61888703279151   13.07449751091123
H        -3.61469761384874   -2.67334816598923   14.72859019554992
H        -1.89874237402422   -2.38246390327081   14.42999023518802
C        -4.60506287957897   -0.39296468351056   13.56901958597818
H        -4.76423424651135    0.68072325799459   13.49169184252631
H        -5.31134066770353   -0.79817799174421   14.29026479336826
H        -4.80958142789348   -0.84481011414008   12.60247485209629
C         1.08455379306477    2.02731407640082   13.40121754622757
H         0.86027409374840    2.32625270071769   14.42825413607562
C         2.32947918936482    1.13652546095528   13.40783568123359
H         2.16313330954843    0.23590915980655   13.99589558775708
H         3.16957147922502    1.67718832312088   13.83707263739798
H         2.59210857811524    0.83656884595965   12.39530436855453
C         1.33161395798406    3.30620186138531   12.60320158002386
H         1.72806895638738    3.09879696667789   11.61192931485301
H         2.03794988062935    3.94044381135721   13.13316751187326
H         0.38549586804831    3.84533613226939   12.50523318995687
C        -4.48180486366204    0.95418374367037   17.45506840130082
H        -4.20359463017342    1.11561374165831   16.40715249320863
C        -6.00759275361464    0.96593890937603   17.51650694093449
H        -6.36738708523619    0.63212021800771   18.48706911743604
H        -6.40383001521587    0.28803921539771   16.76332219603335
H        -6.39016658270467    1.96285950236168   17.31593413685292
C        -3.96656481685837   -0.42010749447770   17.90079702697447
H        -2.88848623087790   -0.50400559342864   17.78380712908194
H        -4.43672421644760   -1.20469408560194   17.31168866250802
H        -4.20896393269996   -0.58522456650603   18.94898052522745
C        -0.39133191713984    3.71031512839607   18.67668087680395
H        -0.04182620918215    3.32070127551470   17.71760159342396
C        -0.18281900671934    5.22461842996720   18.63465306933220
H        -0.51591491808777    5.70825615960321   19.54922882710025
H        -0.71533464391257    5.65302919757315   17.79164468208774
H         0.87498368733500    5.43626447690115   18.49918341117906
C         0.44999560163298    3.09986147226348   19.80333573270334
H         0.17598939425894    3.53525313759386   20.76190478031064
H         1.50531397777894    3.29343207919734   19.62664497824156
H         0.30481907315491    2.02334456913481   19.87024428814904

