99
CSD_code = PIVXOK | q = 0 | S = 0 | Stoichiometry = C41H53ClIrN2P | MND = 6
Ir       -2.12011561492807    4.50679234366613   13.50617195396299
Cl       -0.51399480695312    4.61139080510190   15.18946734771543
P        -3.22517018579506    2.77756220812479   14.68441582556149
N        -1.15786289272949    1.09616130843608   15.06883697839609
N        -1.84762373780763    1.76972320800052   17.02613662327589
C        -2.02820143834531    1.94179899798329   15.69104534731530
C        -0.42133997301826    0.42952913395327   16.00919781041505
H         0.32419781343483   -0.29022372687322   15.74321958997170
C        -0.84187487505588    0.84827381985466   17.21990325536623
H        -0.52549494080312    0.56856761460577   18.20298278245719
C        -1.13227694219319    0.86312421390335   13.66786568709641
C        -2.16028332954247    0.10057883510979   13.09741082625028
C        -2.14902914513228   -0.09148616546656   11.72319773636525
H        -2.93181982424801   -0.67060948557765   11.25905790227923
C        -1.14076411272035    0.43608407560684   10.93989700816884
H        -1.15314106674489    0.28342196401099    9.87073416201288
C        -0.10334847930189    1.13135948539607   11.52696165855982
H         0.70068977045901    1.50215475655940   10.91179983307610
C        -0.07517644742398    1.35746434620098   12.89791347592970
C        -2.55092628865097    2.35103646989977   18.11506944442666
C        -3.86760297613028    1.94309010617582   18.37045829076783
C        -4.52166712410956    2.50066515660738   19.45848563615033
H        -5.53634831613281    2.21641345956538   19.68102165290199
C        -3.88627016096548    3.41484947826040   20.27737604643098
H        -4.41326085491400    3.83651319180348   21.12041625860398
C        -2.57768643264877    3.77478452771317   20.03186270126142
H        -2.08722581601928    4.47076410557672   20.69411084618996
C        -1.88252853728887    3.25426266340422   18.94775501229438
C        -4.16189933510308    3.81843221719494   15.86006370459771
C        -5.55133555178131    3.76025544157733   15.79103566354731
H        -6.01869107179631    3.07780638807090   15.09260099125749
C        -6.33154745816184    4.56220858258114   16.60414610642028
H        -7.40989782838490    4.50663603189733   16.54177304040080
C        -5.73219465782990    5.43157130247841   17.49878797457635
H        -6.34006706822268    6.05204865103874   18.14171405106109
C        -4.34985666492996    5.51605421566659   17.55364614079503
H        -3.87850983098127    6.20999729524127   18.23482825397418
C        -3.56982155440171    4.72785345864834   16.73180167875354
H        -2.49614520420522    4.82034441353829   16.74674038836681
C        -1.99018953363441    6.61162761736285   13.14388926083197
H        -1.60014827458983    7.08911435485359   14.04119673701229
C        -1.07442619127931    5.99075897919621   12.30217043068096
H        -0.03157400102568    6.03286490067344   12.60329809318550
C        -1.29830759298762    5.79583837812810   10.81820124839135
H        -0.33481210546491    5.83091534733139   10.30521754700478
H        -1.89589563675554    6.62532213682152   10.43640931354108
C        -1.98243169005838    4.45116412806148   10.49744135021652
H        -2.57863442434677    4.54244102456494    9.58267328944089
H        -1.21540781201120    3.69671161821938   10.30777455026005
C        -2.85613052368408    3.94002330292582   11.62248280806285
H        -3.01802191873886    2.86224165717343   11.57211979545575
C        -3.84079869624372    4.70798019545753   12.26611383354172
H        -4.68791476524830    4.16903752139151   12.68588229144359
C        -4.15392033449714    6.13877500925084   11.88498006550151
H        -5.21672329252046    6.32927604667399   12.04633747909376
H        -3.95876541246239    6.28152526893613   10.82101714666247
C        -3.33979692666525    7.14214949669270   12.72198992039647
H        -3.20250451469865    8.07621951585778   12.16559634317903
H        -3.90199489774049    7.38333861803322   13.62699958359300
C        -3.20566215689867   -0.59563073375873   13.93804012790223
H        -3.14477900660031   -0.23206862905238   14.96647138439372
C        -2.91013451941662   -2.09882918873359   13.96046837435197
H        -1.91514167247641   -2.28742408346316   14.35896808206895
H        -2.96105192762994   -2.51614349332902   12.95776866381132
H        -3.63551206030195   -2.61411545439151   14.58613304082220
C        -4.62432968408599   -0.32955711317459   13.43651762953982
H        -4.79187457232313   -0.77703287278411   12.46091837743022
H        -4.79768544896786    0.74205149484645   13.36297109148053
H        -5.34687637083056   -0.75129228046908   14.13166941142503
C         1.10634854814202    2.05810533257473   13.52169849235352
H         0.82735603818843    2.40726602301835   14.51869234762404
C         2.27711913074263    1.07759959944754   13.64512076393821
H         2.00895966804645    0.20979544754824   14.24371691109288
H         3.12455508266043    1.57058880787343   14.11541629914154
H         2.58281084871297    0.72699109966791   12.66099494343598
C         1.53135542241087    3.28234130795994   12.71229108798926
H         0.65450179303642    3.87208037443429   12.46174111043856
H         2.04651255843598    3.00301646533657   11.79585154546746
H         2.20128899716657    3.89779670633980   13.30731477583194
C        -4.52535741608577    0.88091213878971   17.51745611141730
H        -4.27175865406621    1.07757332964729   16.46894084823250
C        -6.04942536174042    0.87342553963836   17.61294151540801
H        -6.44748569562516    1.87162364393956   17.45314340119402
H        -6.38307667517438    0.50479112726021   18.58031934309443
H        -6.45527959398477    0.21518111835726   16.84760201146069
C        -3.98659852871566   -0.50130417001085   17.90671220322930
H        -4.20252209216545   -0.70311380513296   18.95420445480120
H        -2.91116206974026   -0.57083412306419   17.76115519490245
H        -4.46325819131128   -1.27070462820430   17.30316285644256
C        -0.43798709953092    3.64271279995000   18.72979084661172
H        -0.10005211114505    3.26668426753250   17.76102667477106
C        -0.23839917931792    5.15859775099276   18.70412018042712
H         0.81967823594625    5.37815208575441   18.58411627816100
H        -0.58615251157751    5.63114400780333   19.61871790522624
H        -0.76227281935843    5.59317328449865   17.85904320874279
C         0.42570277378958    3.02193001572904   19.83386172443810
H         0.27925867100000    1.94524738750461   19.89451543598512
H         0.17260705836064    3.44992788116019   20.80125647505282
H         1.47749209848997    3.21466152476722   19.63704809529034

