43
CSD_code = PIWGOS | q = 1 | S = 0 | Stoichiometry = C15H18N6O3Re(1+) | MND = 6
Re        2.90921177005580    2.61172624673139    1.95519085809712
O         4.99595131348882    0.41511861421377    1.33243018219078
O         4.75583234846036    4.90514718311587    1.01311640071901
O         1.68979190782228    2.38661655829550   -0.87688261588581
N         1.32679780229408    4.03555607753883    2.55453808492959
N        -0.17268012142311    5.63333331411067    2.39722459147473
N         1.51044025583741    1.10004639053212    2.77934022286346
N         0.44922626694286   -0.31014605408237    4.09014617357232
N         3.74006113289364    2.86080357191836    3.99792525631918
N         4.57085427174789    3.82411829146299    5.78965824924311
C         4.23659238569297    1.24057524343591    1.54596049544340
C         4.08291096012662    4.04032385739606    1.34046398655880
C         2.14086588186353    2.44737866475310    0.17246208998983
C         0.82776223001959    4.98621804555973    1.78545052539615
H         1.17457136564175    5.22047715746609    0.79683282073140
C         0.61090584283659    4.07618378954368    3.71218661068361
H         0.80072183740762    3.40770768896836    4.52958788546718
C        -0.32416790787979    5.06539330575359    3.62563981700860
H        -1.06369179061058    5.39619924407824    4.32474499825360
C        -0.95354802787781    6.71515880082964    1.86385763598042
H        -0.56926510829732    6.99120006788248    0.88429723270257
H        -0.90101846148293    7.58064305293301    2.52558654292726
H        -1.99792198972653    6.41507927257673    1.76479292189985
C         1.42466183510749    0.60555568475133    3.99916480487447
H         2.04740026100083    0.87538202081858    4.83102859698661
C         0.54126070193000    0.47160620178220    2.05344745324629
H         0.38500615318706    0.67743321100596    1.01329761530084
C        -0.12248395402270   -0.40564763679014    2.85731704113516
H        -0.93255075395659   -1.07320127075554    2.65106703419659
C         0.08388057481052   -1.07572698023225    5.24961524524289
H         0.29685083138339   -2.13352447593787    5.08604472333536
H        -0.98169674071705   -0.96405579683792    5.45389798871443
H         0.65138782150704   -0.73058578544619    6.11174300799520
C         3.83803370792161    3.98655784160524    4.67888229143136
H         3.40248998135857    4.92518264005204    4.39305427759260
C         4.44757751722942    1.93282013929082    4.70412618503858
H         4.55537186680536    0.92074630889666    4.36526960751294
C         4.96595917322665    2.52053418608452    5.81955101311842
H         5.57322800273771    2.12287953027138    6.60556327224199
C         4.91202692395127    4.82924328634123    6.75783095854558
H         4.45587387655027    5.77639278499959    6.47741923688468
H         5.99467836480668    4.95627423108041    6.80091609046299
H         4.55653968934845    4.53887549400826    7.74771258957432

