54
CSD_code = PIWGOT | q = 0 | S = 0 | Stoichiometry = C27H20Cl2HgN4 | MND = 5
Hg        6.08566039674128    1.15304079341290    2.95467272501785
Cl        8.25297745367893    1.82408870358643    3.14769173719724
Cl        4.64176582999169   -0.37646455081261    3.87098703977798
N         4.78074301251757    2.94379848796866    4.15294365350122
N         4.38309983085043    2.23138558069332    1.59869580520813
N         6.29146070723569    0.65927400592126    0.49720633402475
N        -6.01494394742706    5.61237780767395   -4.85619400458090
H        -6.16044999960640    5.21363388002146   -5.76849330957867
H        -6.85183340474140    5.80770238992467   -4.33270706556662
C         5.00244174310674    3.13951420166013    5.44241740682346
H         6.03849393038498    3.09148389036168    5.75471732295248
C         3.98825395448379    3.39718610345331    6.35313336523861
H         4.21522422033607    3.54507773018679    7.39680768685353
C         2.68505096648187    3.43509613504047    5.88738441121199
H         1.86085016080036    3.60388690345845    6.56484592823580
C         2.45009919336051    3.24731643405398    4.53590903762407
H         1.44015153531274    3.25460995689579    4.15897793511991
C         3.52938571293075    3.01099096869262    3.68703289541048
C         3.36100154699649    2.79930801262141    2.23507763079139
C         2.20835238271672    3.18084595526413    1.55512675426855
H         1.41194419166571    3.69796179203606    2.06500022333833
C         2.09524612221008    2.92189843034458    0.19025223122273
C         3.16927685672785    2.29707838970192   -0.44247476080034
H         3.09574562411120    2.03195942603268   -1.48485273910720
C         4.30570341253214    1.98197028411787    0.29428884980327
C         5.48586852048433    1.34125695762733   -0.32124524931241
C         5.75814647790754    1.45071672979175   -1.68377878563730
H         5.12148586429089    2.03710037754732   -2.32678172996279
C         6.87876789076374    0.82181889947053   -2.19910826201939
H         7.11234207320602    0.89972666318833   -3.25068415472979
C         7.69540249804025    0.10229894864352   -1.34300697163179
H         8.57696582381115   -0.40353493165171   -1.70256119993016
C         7.36102211052678    0.05828179693918    0.00257369621275
H         7.97602548192220   -0.47712755394382    0.71439724300896
C         0.89088280326059    3.29615681442308   -0.55488056937563
C         0.98360505107014    3.79886024990191   -1.85233223463476
H         1.95607897243787    3.93885284225074   -2.30206345168255
C        -0.14827377178918    4.16464225380685   -2.54920007410867
H        -0.05049530774800    4.58331577648873   -3.53979038239765
C        -1.41652495569297    4.03064019059636   -1.98220744720630
C        -1.50556768159779    3.51783025207748   -0.68719259569646
H        -2.47695521668938    3.37620135007526   -0.23718732979360
C        -0.37417392226485    3.16306206886982    0.01636263286797
H        -0.47037325405763    2.74276948004606    1.00690548857615
C        -2.61754001026110    4.42086966126215   -2.72430349251872
C        -2.71735961886002    4.20056538374581   -4.09830310404241
H        -1.90891524069004    3.70959333801176   -4.62007699633864
C        -3.84655452223608    4.56416362410381   -4.79799866545949
H        -3.91037725094458    4.37610578040134   -5.86050178648616
C        -4.91964842085815    5.17848228675073   -4.14854489670523
C        -4.82261854560978    5.40378381718839   -2.77359162422109
H        -5.64340938431900    5.88206741227785   -2.25802244002433
C        -3.69529928775857    5.02673591982017   -2.07804260288993
H        -3.63740860973816    5.22794189797527   -1.01838010784902

