64
CSD_code = PIWHOT | q = 1 | S = 0 | Stoichiometry = C30H24N6O3Re(1+) | MND = 6
Re        2.07272999305808   -1.82117964579480   -1.37759809885000
O         2.32397612804905   -1.10404206830309   -4.37449038373254
O         5.09888113951113   -1.36584332421762   -0.93166343015320
O         2.44834809296462   -4.84615687863631   -1.90300537111681
N         1.63271132255514    0.28026968249288   -0.90198703296994
N         0.76695573882888    2.30168022475421   -0.93822317655040
N        -0.12968096632477   -2.10334828561768   -1.55064578948168
N        -2.09097753705521   -2.38018631521841   -2.51223773975609
N         1.84349092108177   -2.15814599365395    0.79992930182363
N         2.22330510614924   -3.00951566759349    2.79277623310118
C         2.23869674762851   -1.39245929829294   -3.26990319648877
C         3.98379359358719   -1.53241034152649   -1.11836940948104
C         2.32739750731823   -3.72403684166598   -1.72062238929605
C         0.70641472645698    1.05224522226450   -1.43312880772741
H        -0.02282821529811    0.73912618368639   -2.15544626101561
C         2.32689381791893    1.06818157082896   -0.03066410441463
H         3.15663398096523    0.69475819906496    0.53719713884520
C         1.79556338335107    2.32206199789482   -0.03961957227235
H         2.08272239988619    3.20726697768054    0.48741331166147
C        -0.06255574634004    3.38781442518615   -1.29152052522650
C        -0.45881817984995    4.29861561254845   -0.31984345117918
H        -0.14658194081465    4.16774337107585    0.70519592149688
C        -1.26667552656237    5.36464708447985   -0.67259513391900
H        -1.57316315521258    6.07254641759441    0.08142289852544
C        -1.68136191757762    5.52121297104933   -1.98482955953930
H        -2.30977816720397    6.35474226829479   -2.25580259385513
C        -1.28512265149800    4.61017495175365   -2.95019849915131
H        -1.60000803356049    4.73446021074195   -3.97447802545704
C        -0.47419933371834    3.54244409470681   -2.60989336616798
H        -0.14112913484454    2.84720321966554   -3.36576849613937
C        -0.79249504412059   -2.08248917254535   -2.69226329619779
H        -0.35794059644610   -1.89434382621584   -3.65505542894987
C        -1.04498841034777   -2.42740014774353   -0.59397064300003
H        -0.78816399802855   -2.52390336164278    0.44202042969547
C        -2.26358391206330   -2.60447864661478   -1.17700570328048
H        -3.21417480674816   -2.84309128549368   -0.74868674478652
C        -3.07981834407988   -2.46151999956497   -3.51684253959555
C        -3.05192350785662   -1.57715013739593   -4.58853829386111
H        -2.28585053227066   -0.81863238807100   -4.64715744089207
C        -4.02053940227073   -1.66515569794337   -5.57198559992635
H        -3.99871196471301   -0.97868348648521   -6.40382372242159
C        -5.01489364456005   -2.62570389205965   -5.48766566705478
H        -5.76868493976266   -2.69008162666609   -6.25623352903125
C        -5.03992518859938   -3.50437389579154   -4.41730637919643
H        -5.80984269171071   -4.25693533664597   -4.35127674655944
C        -4.07422431528437   -3.42795821554536   -3.42988932457002
H        -4.08051697105076   -4.12624607135259   -2.60703783770418
C         2.47551163168300   -3.09898268455261    1.47574891502521
H         3.09473348856532   -3.85798505112909    1.03761725917772
C         1.15756150796378   -1.42819030380487    1.72535252967423
H         0.55152823725195   -0.58293085235068    1.46189455562060
C         1.38077788946766   -1.94928408940088    2.96454161581252
H         1.03367267213941   -1.63552789245425    3.92640978688985
C         2.74146689666765   -3.84631672616131    3.80542675374402
C         1.95047003541716   -4.18052976361921    4.89769205379181
H         0.93557219699746   -3.81866177055472    4.96447112398233
C         2.46558994577781   -4.99655817870792    5.88876771394556
H         1.85122847636570   -5.25725066337650    6.73631166404801
C         3.75973515067864   -5.48022524766643    5.79113683039933
H         4.15709184385321   -6.11655164674046    6.56594395892786
C         4.54401732884144   -5.14595584581492    4.69927457214447
H         5.55361853413722   -5.51777965606586    4.62243191335348
C         4.04141123841558   -4.32732543882827    3.70404277093905
H         4.65875710224880   -4.04896702623694    2.86355405832745

