64
CSD_code = PIWHIN | q = 1 | S = 0 | Stoichiometry = C30H24N6O3Re(1+) | MND = 6
Re        0.51107586315387    3.66157172467950    1.65083753606063
O        -0.89520840349540    1.54395399254937   -0.11063988674101
O        -1.80500844738977    3.70828880846718    3.69792266943808
N         1.51360888545670    2.03978399583666    2.77419637128919
N         2.10236215584384    0.66167446919252    4.38506855237394
N         2.28819239850905    3.58199105363781    0.35562565111244
N         3.51788922580049    3.53805933226766   -1.46697216806875
C        -0.39616068947867    2.33214112682003    0.54965088252699
C        -0.96725108275908    3.69657035898403    2.91747449140937
C         1.49695547795078    1.82142870804893    4.07384850108499
H         1.07106504135468    2.47613752927186    4.80868129403223
C         2.15216172886409    0.96758887505921    2.22203794437831
H         2.29307515978363    0.86720029255240    1.16371065682830
C         2.52844384124332    0.11030407559740    3.21091314138358
H         3.02516706206249   -0.83575495868276    3.16473369045543
C         2.24098011407339    0.10500636255754    5.67512306417647
C         3.40426690146785   -0.57535314454474    6.01337787161689
H         4.20877160340401   -0.66205444203932    5.29876932343603
C         3.52911203195874   -1.12757063082140    7.27558063630142
H         4.43159509985546   -1.65693949760025    7.53819784108306
C         2.50295582913986   -1.00035140076471    8.19716730523933
H         2.60367780364560   -1.43432635218515    9.17934242505684
C         1.34536736379554   -0.32016645110466    7.85606008048731
H         0.54130460006786   -0.22636198419682    8.56901437905684
C         1.20769468597572    0.23317564715255    6.59578862084598
H         0.29537281679718    0.73959295131923    6.31891087138055
C         2.27645116579554    3.64249709314475   -0.96220162754662
H         1.39724087337227    3.78333977920883   -1.56137718535247
C         3.59425907556083    3.42720542024973    0.71479862991252
H         3.90351358447877    3.34510282431714    1.73901572184106
C         4.36791050264603    3.40324765713612   -0.40677529724501
H         5.42364660145686    3.27849970204292   -0.52487787670132
C         3.87190474550887    3.56082715720362   -2.83392312606716
C         3.04086581514497    2.95923615495078   -3.77135876687817
H         2.13727842950711    2.46078640489027   -3.45471068848591
C         3.39166039628552    2.98641203851730   -5.10906364885976
H         2.74823857104506    2.51802160335839   -5.83710712212225
C         4.56404394474053    3.60523971666299   -5.51103719736296
H         4.83415266862418    3.62231391402529   -6.55500150025733
C         5.38981206870953    4.20190475445237   -4.57271716229561
H         6.30172777668924    4.68755290943937   -4.88293156950385
C         5.04797859851734    4.18399018529414   -3.23245500662273
H         5.68172896062695    4.66506075033875   -2.50284313926693
O        -0.65829291825652    6.01952153574950    0.02585400783651
N         1.66506720085563    5.12105247315622    2.86293921688643
N         2.22191115432946    6.46901023230076    4.51152431054504
C        -0.24627477996230    5.14187320350468    0.63056545128294
C         1.45732647623073    5.43194834138917    4.12766556837518
H         0.77120143919230    4.93448819239341    4.78514465682749
C         2.59922805263205    6.00578427191522    2.40979821539196
H         2.94766940759280    6.00556422450666    1.39604777167990
C         2.95839483915357    6.84076831343659    3.42403771949586
H         3.63969723014290    7.66502305567101    3.44263491024943
C         2.23841768654420    7.07563737536842    5.78641349764075
C         3.43691029820735    7.53835095518704    6.31575721529688
H         4.35624019824328    7.41761231734607    5.76285476164686
C         3.44542090762503    8.14063213932831    7.56105941743378
H         4.37553882574449    8.50109009197840    7.97174945054042
C         2.26778209982390    8.27831653105960    8.27711193584575
H         2.27872941515549    8.75020445951320    9.24683038455909
C         1.07542826451437    7.81410724974622    7.74618072714238
H         0.15566989027766    7.92634752531473    8.29844614579166
C         1.05384867510204    7.21346847362387    6.50025376747258
H         0.12160479105587    6.87527053024120    6.07377568462849

