76
CSD_code = PIWHUZ | q = 0 | S = 0 | Stoichiometry = C24H44ClCuN6 | MND = 3
Cu       15.06422623616865    1.92003124606594    2.50734461799985
Cl       15.91794082965408    0.79962763726157    4.17385815777475
N        16.05983146059394    2.97525464931972    1.09722144749641
N        13.36485010534242    2.82908760423857    1.81797314372143
N        17.61522705811996    4.28814109539796    2.45830200957354
N        18.31027947700679    2.46484142841718    1.40477251715124
N        10.95834970300943    2.64127679638447    1.50924185424181
N        11.81266476663125    2.64554487179593    3.55573598438836
C        15.12245486788946    3.97175989720544    0.63635224581764
H        15.44041070569766    4.31077105984835   -0.36131189205703
H        15.02799776857750    4.86312523699925    1.27059122254741
C        13.74794615980086    3.30219533207835    0.50999641941175
H        13.02656005986164    4.02802948287303    0.11169544270203
H        13.87138137038224    2.47247383703132   -0.20033073392541
C        17.21510265831766    3.24813294318516    1.64709099334554
C        18.99127893610453    4.14247372749534    2.68099987153826
C        19.40591662495272    3.02077017321706    2.04876292555457
C        19.82171875952404    5.17988796456774    3.35493215803346
H        20.87256328424296    4.92553848644670    3.25112475435192
H        19.59968503064131    5.27075649439415    4.41668856818815
H        19.66106085051136    6.15007192906211    2.88614362333641
C        20.78120361068985    2.45574365132807    1.98314893502817
H        21.24400798690742    2.65787207272842    1.01671666090277
H        20.76437279798982    1.38173667154997    2.14359049377443
H        21.39829802175957    2.90126122170022    2.75844889721892
C        16.68272440065198    4.88333770055601    3.41054228046276
H        15.68802905336075    4.56595808692903    3.08624315408200
C        16.87416896587652    4.30304361900230    4.81244358167232
H        16.77577791451160    3.21895765216093    4.78236866855172
H        16.10502646157898    4.70084667638016    5.46961211607218
H        17.84359415949770    4.55330405024487    5.23096664685372
C        16.74276329488049    6.40988918940486    3.39786657609301
H        17.64145268267639    6.77366512407282    3.88633616271754
H        15.88199615760181    6.81058308771087    3.92796920871104
H        16.72385072741005    6.78128592945546    2.37524772840809
C        18.18675916709387    1.22786003467789    0.65727426203291
H        17.16327731156572    1.27906303908325    0.26478466867294
C        19.16047498994260    1.16439600671364   -0.51836366662681
H        19.16117859175558    2.10766129560261   -1.06005083175007
H        18.84706131261567    0.37681527013769   -1.19897595766319
H        20.17220740824847    0.94384286881601   -0.19131198480404
C        18.29019955964809    0.00414022838375    1.56536462775656
H        19.30367781335868   -0.14648450770075    1.92811384690717
H        17.98916793944715   -0.88357743160235    1.01509782478766
H        17.62983603231855    0.12055017038405    2.42204529860065
C        12.14092450356953    2.68673257833581    2.22488717088580
C         9.90081890129173    2.61751525255427    2.43099036276612
C        10.42838485615562    2.62427621738270    3.67504468202173
C         8.46604799210731    2.70980854001788    2.04243753334540
H         7.85288998855507    2.75679259346516    2.93764419235817
H         8.13607281828473    1.85103208938937    1.46120410476223
H         8.28550740403978    3.61186688507753    1.45919363429123
C         9.71363791285856    2.60820388486438    4.98038856199042
H         8.67233272583069    2.88173561609663    4.83398421176629
H        10.15390256372307    3.31401713983878    5.67872673725046
H         9.74397427596440    1.61574426327741    5.42806017308985
C        10.87712013396797    2.11306212180859    0.15479575692117
H        11.88950168601422    2.15436705237069   -0.24305800619879
C        10.46794700462496    0.63738905440656    0.16363646494051
H        11.14325069964155    0.07091701894289    0.80122135923562
H        10.52832538526322    0.23898532589454   -0.84598645549341
H         9.45395850281766    0.49927784279550    0.52673257440169
C         9.98420239491423    2.95428869270145   -0.75809106314389
H         8.93096710641114    2.75487959352290   -0.59134471454177
H        10.21160417564446    2.71921893124464   -1.79497660419955
H        10.17374981657759    4.01296689412659   -0.59730786985562
C        12.80532583262156    2.65441084990309    4.61376103994964
H        13.75139616569123    2.42012392435200    4.09946350043934
C        12.94560461976338    4.04401817213608    5.23211231277805
H        13.17190835436037    4.77364184613384    4.45788477865026
H        13.75956132142559    4.03011696458915    5.95115736472249
H        12.03740088907832    4.35308126151440    5.74485731625896
C        12.58261438383303    1.56599458141373    5.66061502077458
H        11.91287742565730    1.88422269497899    6.45463409543817
H        13.54411644001078    1.31046565142293    6.09787996575873
H        12.18752064488956    0.66900286444247    5.19098726898332

