43
CSD_code = PIWHEJ | q = 1 | S = 0 | Stoichiometry = C15H18N6O3Re(1+) | MND = 6
Re        3.30217944455961    0.09702534327315    5.28666196919556
O         1.42081968147262    2.54109503150478    5.08173201122789
O         1.28567596464656   -1.39706324519760    7.09370142824628
O         4.83114458780448    1.30926736416847    7.68631784419504
N         4.80266277953983    1.04328331877284    3.92783711237413
N         5.80462115615710    2.62492744540260    2.77391657815165
N         2.37059400536142   -0.78453419513493    3.48356905801647
N         1.35612637962745   -0.97744855983189    1.54400602405779
N         4.58948055474070   -1.69712308864007    5.29845637176639
N         5.69829984531084   -3.51091344047318    4.73991028862968
C         2.12510309031470    1.64332135876379    5.17783354698255
C         2.02470306915610   -0.82806920514422    6.43548762168833
C         4.24833547744552    0.85957048535643    6.81335361445282
C         4.67819331891227    2.24419382623381    3.39094834101110
H         3.80068953477686    2.85979814070936    3.44730907599735
C         6.07186853302184    0.63956802516582    3.64138043335535
H         6.46558957395299   -0.30112879803042    3.97052672004123
C         6.70234594173527    1.61249548602299    2.92393732187883
H         7.69420792908010    1.65952755209324    2.52548134264861
C         6.04379260795048    3.87350410942287    2.10437298574703
H         5.14926913957889    4.49081981464589    2.15413648058994
H         6.30360941836495    3.70021595028693    1.05889753103380
H         6.86719593751832    4.40459673202000    2.58379499857039
C         2.04048316035411   -0.16815665391827    2.36495492618172
H         2.27323048392684    0.85244142550375    2.12789214996730
C         1.87194191275411   -2.04904657580766    3.37604554870678
H         1.98189771771097   -2.77340943794254    4.15936155781360
C         1.24122085690251   -2.17962764131932    2.17472130891665
H         0.72874659782684   -3.01042310453435    1.73667888297991
C         0.80547612246244   -0.64461942796918    0.25931821898570
H         1.10143320407346    0.36585515824900   -0.01491484038767
H        -0.28392935798120   -0.69738919993239    0.29207299263457
H         1.16439758751023   -1.34216348194818   -0.49867232309535
C         4.97839214952806   -2.46720884738591    4.30071966546299
H         4.76233201527280   -2.30363661344008    3.26137059038769
C         5.08333694991783   -2.27340336770518    6.43242013859058
H         4.91267238776327   -1.85005465199373    7.40272474879402
C         5.77281368869286   -3.39955965293005    6.09644292259813
H         6.29557834858975   -4.11019941129601    6.70144864776328
C         6.27761412018665   -4.56122583658940    3.94909250110558
H         7.35627493596673   -4.60183686968940    4.10767003351298
H         6.07896665232273   -4.37910489994294    2.89466006433861
H         5.84981249518932   -5.52476036079674    4.23062356488127

