94
CSD_code = PIWJEL | q = 1 | S = 0 | Stoichiometry = C33H53CuN7(1+) | MND = 3
Cu        2.11202125080923    7.26552156464817   10.64272202906640
C         3.01223577418127    9.72079372713703    9.20394298191022
C         2.99592057541209   10.22184293863160    7.02006565985758
C         3.99251172826590   10.93517661760332    7.59563725787194
C         1.14215937092855    8.71979732390325    7.92021576239004
H         1.01153729451217    8.27999393773880    8.91635984532635
C        -0.05281881187903    9.63729144107145    7.66055482344730
H        -0.06228815414763   10.45330452664257    8.37940821758283
H        -0.97222085343225    9.06857235082839    7.77068798916916
H        -0.03511515200242   10.05914238367757    6.66036625970129
C         1.23126505906582    7.57538270291935    6.91384349812061
H         1.17078550004040    7.93017597198444    5.89050396653311
H         0.40623227240132    6.88844088929844    7.08324205532549
H         2.16303848229915    7.03182124920468    7.04980393754477
C         2.65245646959370   10.15416148550363    5.57493329887894
H         3.17803627897406   10.94116704497430    5.04259276308225
H         1.58774193225898   10.27769215749854    5.39862072823891
H         2.96609967435243    9.20028216131038    5.15245335496277
C         4.89519312385883   11.91282522590735    6.92893157083820
H         5.79221069267726   11.42745844607708    6.54458365637883
H         5.18880989723458   12.70828712288842    7.60481833941453
H         4.37657612977668   12.36707094541221    6.08792209816099
C         5.08104826718445   10.94163815766960    9.89552726283400
H         4.92249168867250   10.27731430349759   10.74505432133173
C         6.46510318933671   10.61062913941721    9.33540810930445
H         6.45512379916322    9.63631702118389    8.85216238122526
H         7.17748140283149   10.57872682686596   10.15578182384319
H         6.80821602334693   11.35387698493208    8.62477302214143
C         4.99855481440094   12.38675694029754   10.38998645409849
H         5.30077228040083   13.09449211445819    9.62398170883567
H         5.65950430238866   12.51314840945861   11.24320523265792
H         3.98494480479356   12.63129973183231   10.69926804066270
C         2.78522079472917    9.77560115782363   11.63284427709815
H         2.72849307347290   10.86609466879199   11.55947651626166
H         3.71541763510223    9.49068489702610   12.14481313720191
C         1.62397976632448    9.25108959719267   12.49354522445433
H         1.67842921154030    9.69278256738796   13.49530418894528
H         0.68654357371092    9.56014666098568   12.00599217632890
C         1.41381717182751    7.03823719933229   13.51828091173744
C         1.46646919966543    5.27909643933261   14.90950359055391
C         0.43656202626741    6.07044990435595   15.29042758430340
C         3.35301912361289    5.54077813375935   13.20302940376593
H         3.39416038249301    6.15228351701355   12.29364465209256
C         3.48109599771764    4.07469822016579   12.79396416226409
H         3.77176474131390    3.44640377901343   13.62939702427708
H         4.24850593357956    3.98842732754454   12.02908445135494
H         2.54779145443558    3.70380724390974   12.38002967007073
C         4.49556575587381    5.97869947957066   14.12020032311143
H         4.40959509725727    7.03964554614767   14.34293676619993
H         5.44721302782053    5.80259560967341   13.62658608829228
H         4.48701898592741    5.42848926852527   15.05715513399797
C         1.89615149135795    3.97875005194399   15.48920735337721
H         1.32931286836012    3.77569693809215   16.39237470073700
H         2.95088748201591    3.98693640118275   15.75271287667752
H         1.71971443532399    3.16433317448219   14.78840340346004
C        -0.45802810178194    5.90123908489409   16.46687726984782
H        -0.26278819929980    4.94171041769777   16.93568169956355
H        -1.50951049196591    5.92910176562582   16.19294681364628
H        -0.27141197885112    6.67983212173436   17.20499912144145
C        -0.72635835105095    8.08294254519012   14.26072975332139
H        -0.41206521062385    8.80253460335459   13.50659399516400
C        -1.05448835152074    8.86277875728640   15.53338104096230
H        -1.64079040591626    8.27593378850250   16.23164108266703
H        -1.63333070568597    9.74414077945735   15.26940923366391
H        -0.14088394481635    9.18986694746851   16.02419429517531
C        -1.94468732667051    7.34843060313514   13.69609011117386
H        -1.67958163396985    6.84579462086036   12.76794033192553
H        -2.73360445382620    8.06645318969744   13.48937608778418
H        -2.33041768016057    6.60855265032022   14.39043956209082
C         1.75002202225505    5.61217345726496    9.97980390035228
C         0.98733045082717    3.21075756475330    9.90471450046795
C         0.01893295017909    2.82336519782974   10.84389174310042
C        -0.38614583289009    1.49834304972284   10.84365829235127
H        -1.13053726198571    1.17495235278139   11.55524614648049
C         0.14914235683701    0.59172825407816    9.94394826025059
H        -0.18055176655590   -0.43534055945303    9.95937086724870
C         1.10320457991627    0.99413613951055    9.02409194261828
H         1.51309032349455    0.28035185372553    8.32626111606226
C         1.54042386057234    2.30774440264081    8.98540546857208
C         2.56733266559237    2.77585241392370    8.00435504268085
H         2.89818038952395    1.95460173509035    7.37569397069603
H         3.43160329326812    3.19116928184961    8.52252629670691
H         2.15689325731964    3.55996857745573    7.36813483415087
C        -0.56804689175967    3.82327428104941   11.79175626932915
H         0.19235966665492    4.50072870430613   12.17937997503105
H        -1.05503245670743    3.32079485959360   12.62312625080073
H        -1.31438553933744    4.42796978671540   11.27460283175236
N         2.65650066454878    9.14407064243649   10.33060055224881
N         2.37897618468301    9.47566439575944    8.01710019586884
N         4.01733700849947   10.61607709153997    8.95323723343629
N         1.78061012884412    7.81379727501073   12.53089045442842
N         2.06843813069957    5.86853165673713   13.80126466529481
N         0.39508551045233    7.16739363274374   14.42497340784279
N         1.40802480371368    4.49685244994334    9.90139331647967

