80
CSD_code = PIWNUH | q = 0 | S = 0 | Stoichiometry = C33H43N2PZn | MND = 3
Zn        2.80987657105430    1.40034374630633    5.35112951761634
P         2.13077610089634   -0.38052658184888    3.45972693621316
N         3.50190199457258   -0.43780084898763    5.87406293149038
N         4.67234497592616    2.12559979797702    4.99620948523452
C         5.16723068890264   -2.01146748330416    6.75357010610860
H         5.13831044234337   -2.77611873935904    5.97556877393342
H         4.49004132482614   -2.31205888068128    7.55141382150440
H         6.17750739983673   -1.96933294282439    7.14970709909640
C         4.76165612488133   -0.67356639213123    6.18131780429696
C         5.79066631524111    0.23926791264968    5.96224459687402
H         6.77650084665608   -0.09881243914102    6.24930473064041
C         5.76535473796484    1.50886642408074    5.37847233157917
C         7.12137394594350    2.14861106499863    5.18280692935208
H         7.04900369629358    3.05917365166439    4.59318480976190
H         7.79315575459187    1.45217701637595    4.68368221955112
H         7.55508206249998    2.39096770312319    6.15198263346815
C         4.71152900818099    3.41304942168175    4.42052703192109
C         4.56390354807034    3.54091876404451    3.03063607832655
C         4.53632470163913    4.80796018247180    2.46884505546409
H         4.43900000946436    4.91643270299892    1.39924810512776
C         4.63432664554990    5.93761916363485    3.25858526380376
H         4.60704836735256    6.91908251925663    2.80799726369982
H         6.61846441409528    1.95419885185452    2.18626644067039
C         4.76933652605639    5.80582426455342    4.62683070071119
H         4.84408880524644    6.69317116888493    5.23758540607806
C         4.81795261576776    4.55603849204620    5.22727734510056
C         4.48097662231417    2.31190294614037    2.15584966236036
H         4.27379407464562    1.45513815612112    2.80564486081233
C         3.34792654221724    2.39164488021690    1.13397369969071
H         3.53984363320674    3.15356093649711    0.38250791609010
H         2.40704314110245    2.61926418223245    1.62870449021336
H         3.24363263109765    1.43475093211595    0.62587398431109
C         5.82100163992941    2.07134467816058    1.45606281229349
H         5.77273984613737    1.16917349681344    0.84898039041006
H         6.06971506016236    2.91104533993010    0.80998258844775
C         4.96588330664433    4.45289068909251    6.72862187159773
H         5.02600621850362    3.39490893099465    7.00252265986226
C         6.24126579761505    5.14878070681242    7.21127308890531
H         7.11204113873405    4.77593803799172    6.67734011768984
H         6.38459029579444    4.96956416767833    8.27504873687803
H         6.18089132027007    6.22285089893770    7.05340705642431
C         3.74202995097382    5.04790337282616    7.42830743353697
H         2.83963884357760    4.53915228125576    7.09894434472169
H         3.64231146806703    6.10702854087514    7.20272246953541
H         3.83211537938748    4.93197482406316    8.50654266911300
C         2.53243568285841   -1.50762623863580    5.92451221032392
H         2.14131124601400   -1.64106378463135    6.94475671866571
H         2.98425532969913   -2.45796827405418    5.61184301581024
C         1.38819496714466   -1.18475763554383    4.96463849133511
H         0.70672955060240   -0.46382730426951    5.42077519143151
H         0.83037769297942   -2.08686612352092    4.69857199921976
C         3.23568459097871   -1.75533821421091    2.96501854211520
C         4.61079720383243   -1.56032448511890    2.99666913626409
H         5.00733041750415   -0.59567066363320    3.27717731359621
C         5.47119049464681   -2.60091092282236    2.69166780943663
H         6.53939767865439   -2.44251482002455    2.72484865224918
C         4.96391124198478   -3.84214093087856    2.34751532383710
H         5.63400374629886   -4.65571689111626    2.11052947429492
C         3.59248855932431   -4.04086804986115    2.30727351991809
H         3.19464341124600   -5.00884256704347    2.03778658829436
C         2.73104035799191   -3.00487216802602    2.61551337888802
H         1.66156856917856   -3.16288027121298    2.57842005896762
C         0.77363937344760   -0.60174655483713    2.25473970300872
C        -0.55478182595905   -0.40090652674547    2.61667065787499
H        -0.80719795664115   -0.18535793377148    3.64487326552973
C        -1.55715694032415   -0.47436677365101    1.66646147351522
H        -2.58659144896572   -0.32700211863498    1.95992903623459
C        -1.24515668246475   -0.73103756527460    0.34190451246453
H        -2.02963127109905   -0.78844144314447   -0.39814261378321
C         0.07759717509662   -0.90468779557951   -0.03182720531953
H         0.32721568372745   -1.09452905237866   -1.06578700195636
C         1.08037831564127   -0.83125507237206    0.91589238967238
H         2.11339964113008   -0.96672935365857    0.62439340633535
C         1.11137306039783    2.50013538738843    5.48168142794598
H         0.26646961726694    1.90801518078536    5.84238578708476
H         1.18738527882731    3.33582003753246    6.17828880661206
C         0.72533215195484    3.07487723199118    4.11629538521849
H         0.60132144676112    2.28324737671971    3.37584591907386
H         1.48850213830794    3.76278426065179    3.75664233267887
H        -0.21876303240586    3.62173352049455    4.17864102255694

