49
CSD_code = PIWNIT | q = 0 | S = 0 | Stoichiometry = C24H23NTi | MND = 8
Ti        4.75221840976452    2.88615236122489    8.86659157646045
N         5.49266807659947    4.24226711954364    9.89056704482535
C         7.58088464675736    3.08100940296334    9.88544771151683
C         8.90012721658574    2.94760759066156   10.27093718356717
C         9.47092314616773    3.87895953238950   11.12659816726080
C         8.70324783110331    4.92683404425328   11.60223955994836
C         7.37683535297680    5.08744254547639   11.23046502396038
C         6.55334201007066    6.21277816441278   11.79646751638100
C         5.07413662498216    5.86179530978104   11.69539969134608
C         4.77166746966792    5.45069007863238   10.25171762601268
C         6.79238626300741    4.16563673092742   10.34303460105995
C         6.86951226826588    2.14558494225365    8.99178940138829
C         6.65764304465334    2.33046504600887    7.59481085617961
C         7.22373975667155    3.23381057371428    6.67509863958232
C         6.83677259232709    3.16739643891444    5.35806941115640
C         5.89148455762201    2.22755029007818    4.91718313448469
C         5.30653099263333    1.34012814014783    5.79268775598502
C         5.66404842907504    1.38377678308445    7.14529847393776
C         5.29557781537213    0.57739478964612    8.28020194264391
C         4.44997293384688   -0.52908037852130    8.42540902240306
C         4.35708272613302   -1.14370960026101    9.65450441215731
C         5.09553110470549   -0.68203739357989   10.75617381223834
C         5.94458345088830    0.39342353475584   10.65259240892208
C         6.07589136620223    1.03777289498439    9.40682059605801
C         3.13745987653744    2.38436191382228   10.04256381667554
C         3.74789079447375    3.94638578410047    7.41534718585146
H         9.47894315050919    2.11276658401547    9.90139180714444
H        10.50236038773962    3.78006384225733   11.42843802116583
H         9.13898458521702    5.64253666714361   12.28570164874463
H         6.75146974159200    7.13337771841400   11.23689982456710
H         6.83894575071637    6.39364655221443   12.83517866488307
H         4.84578900816215    5.01785110647772   12.35243846830221
H         4.45203610039907    6.70985669805446   11.98438964137527
H         5.06592874051743    6.27322536683553    9.57606546685843
H         3.69596034757205    5.26699905936564   10.12902673347310
H         7.97622351423337    3.94002639711288    7.00598031038607
H         7.27272672788132    3.84392224688545    4.63669627730627
H         5.62830134621795    2.20109946869424    3.86996087893449
H         4.59138659389325    0.60731472213199    5.43967742407145
H         3.89076757988107   -0.90462982652408    7.57710142512195
H         3.71246269426599   -2.00153875287501    9.77863773276521
H         4.99522095261732   -1.19653059739715   11.70129914613094
H         6.53622038296617    0.72714840042015   11.49726176114143
H         3.47105284491716    2.15906839282539   11.06578581086847
H         2.34762478539995    3.14362428196228   10.11575115923939
H         2.67363263401801    1.47207608018115    9.63691717105567
H         3.00879690760249    4.67524143570439    7.77223315989711
H         3.21326565188402    3.23095264441563    6.77112732799242
H         4.46474081470211    4.48970487226938    6.78322356657578

