46
CSD_code = PIWNEP | q = 0 | S = 0 | Stoichiometry = C21H23NTi | MND = 8
Ti        1.62116357299472    0.42738692735949    8.20070007045264
N         1.00688485171206   -1.06393457920078    7.28894827370267
C        -0.58623176795464   -1.48294372074824    9.02456314053764
C        -1.56924214553588   -2.25186075338915    9.61396255274015
C        -1.93513154774183   -3.46515635041983    9.04826473739951
C        -1.29354637981070   -3.90145251159233    7.90391093068067
C        -0.30437430702858   -3.14821433209737    7.28800959021202
C         0.39154833455720   -3.67358828092247    6.06184125734061
C         1.69251775019122   -2.91540052718602    5.83063326409056
C         1.45820207183170   -1.40204366536981    5.94968484431045
C         0.05860577936444   -1.90406053323546    7.83403984065922
C        -0.09748672052108   -0.19507769149137    9.55563463890233
C        -0.46671588572407    1.08447578685935    9.09219774964816
C         0.45021901885798    2.03927084553770    9.57127823349821
C         1.38479651831579    1.36692276728112   10.40731954218299
C         2.45093578518333    1.81351021294153   11.20987183500364
C         3.15302172801731    0.89729937086393   11.95370184973976
C         2.83252083946307   -0.47262407709447   11.92710926356069
C         1.79766908106917   -0.95012793245040   11.16128498248949
C         1.04541164526564   -0.03855629869834   10.39696930843052
C         0.44451066333993   -0.88536900712922    4.91659637057331
C         1.84429173266445    1.92566393104228    6.79762070449830
C         3.61293677969113   -0.09025184047036    8.35416208919855
H        -2.04502770156964   -1.90159351077315   10.51916584460612
H        -2.70409880670031   -4.06905386055758    9.50519690919435
H        -1.55969260757811   -4.85613343298994    7.47119473621946
H        -0.26289115030520   -3.57162891238189    5.19060051936078
H         0.59495805081874   -4.74013136533697    6.18533515280125
H         2.42210529112136   -3.20063704243169    6.59431278353864
H         2.10841243553021   -3.15290602106223    4.85027147707514
H         2.41916408314376   -0.88800834682246    5.77956865552400
H        -1.34959916574463    1.29646518877481    8.49549977954365
H         0.35682372804046    3.11368884259723    9.46863425744416
H         2.69289433934793    2.86868467954090   11.25547886097752
H         3.96700321449242    1.22817558635700   12.58300209009112
H         3.41293579471873   -1.15373808975909   12.53282703683358
H         1.53126850794613   -2.00104140065731   11.16719896125336
H         0.73317244934493   -1.18701164745859    3.91222238131979
H         0.40540647589106    0.20293800603109    4.96422930187325
H        -0.54833205189806   -1.27303420100741    5.13464009983914
H         2.42945147776736    1.66156417582033    5.90684184432132
H         2.36359219594209    2.76639654035646    7.28448426719371
H         0.86907483709785    2.29954599926687    6.45243466312879
H         4.18473910744385   -0.05650009411609    7.41629994047402
H         4.10501694995764    0.59672916019283    9.05960569744024
H         3.71361514698468   -1.10673799396690    8.76174967010298

