83
CSD_code = PIWPAP | q = 0 | S = 0 | Stoichiometry = C34H45N2PZn | MND = 4
Zn        2.30131424786165    6.53398286727071    6.63746381843700
P         1.68865935295808    6.32101696440886    9.26242548324602
N         1.45832905861549    8.32841383822320    7.01947126262507
N         0.70141608988433    5.80419617205959    5.62625097057009
C        -0.34809872063437   10.00778781211734    6.98545895608718
H        -0.27819393780355   10.21588674132766    8.05104527405592
H        -1.39389797212062   10.05285540370691    6.69664638497517
H         0.18537433857525   10.79277886939617    6.44860877445463
C         0.23691532793940    8.65261106422640    6.65106538466998
C        -0.59243359593641    7.80675280174636    5.91292215442501
H        -1.56062044652438    8.21820677449784    5.66311901429640
C        -0.37350767237924    6.52478073437012    5.40257905388454
C        -1.50314336759993    5.97892164158256    4.55563173933342
H        -1.56079810418600    6.53626757977231    3.62149081078701
H        -2.45355660976762    6.10186670291663    5.07281250920258
H        -1.35574039533877    4.92696413421301    4.32351877097662
C         0.88546431335536    4.55864533044385    4.99216606012417
C         0.72934812109111    3.37705743065161    5.73391412945533
C         0.94826231561261    2.15830493806094    5.10968969072319
H         0.81180079516150    1.24132879555705    5.66122314596666
C         1.34211790822998    2.09614901973560    3.78654102807046
H         1.51148694328005    1.13862011378787    3.31585962283109
C         1.52591557614224    3.26330891691240    3.07154867325487
H         1.85031513483826    3.20743323142088    2.04322570920286
C         1.29478472423636    4.50210646945852    3.65068591277808
C         0.30173894375488    3.43788710803422    7.18262571664508
H         0.62004002004582    4.40959590133251    7.58240560003041
C        -1.22320152544103    3.35451946029570    7.28999758515646
H        -1.69266537025231    4.17090268917141    6.74800045997491
H        -1.53137844918218    3.41084587216813    8.33242076784584
H        -1.58001360531615    2.41480228506034    6.87187712334257
C         0.94959090658163    2.35118499551347    8.04007759194054
H         0.52196837673906    1.37334937130422    7.83063442185921
H         0.78867466073105    2.56810262245425    9.09404657067543
H         2.02098000993749    2.31037449206075    7.86088981719451
C         1.53269616433670    5.76014720728639    2.84622575621474
H         1.19780396744597    6.62191847605180    3.43115249037075
C         0.75589001966237    5.74797481062040    1.52783264254144
H         1.14343873825250    4.98982739610311    0.85181184549093
H         0.84191212102897    6.71491382272226    1.03583791794516
H        -0.29760836873160    5.54118459128187    1.70265377920431
C         3.03122847625245    5.93065954912983    2.58469446018232
H         3.56962102347918    5.97700952342790    3.52879363042323
H         3.21590839965223    6.85045332733026    2.03322936575536
H         3.41999442336300    5.09566627878554    2.00611357784143
C         2.27095638952840    9.26571685746318    7.76476717471918
H         2.05780748833582   10.30376811537243    7.48472492258072
H         3.31754760084073    9.06432182966256    7.51190736114938
C         2.10993144617811    9.11961816970500    9.28453266252281
H         1.05316900030272    9.20044928105436    9.55211525804872
H         2.64247378653912    9.94611826036699    9.76425310795527
C         2.66489014575715    7.80431780229031    9.82007022798647
H         2.67975925150448    7.82439821151126   10.91441426200596
H         3.69053971949286    7.67237025105473    9.46579212978727
C         0.04140904552811    6.76956650827498    9.92292266505509
C        -1.05319599143036    6.70472695759403    9.07014520852375
H        -0.90832949749248    6.38624651229865    8.04923447265913
C        -2.31294728805371    7.05961707117567    9.52090027530143
H        -3.15807151263172    7.00974759283803    8.84994275262351
C        -2.48870212518092    7.47702319416461   10.82869066736460
H        -3.47041342876781    7.75600882300154   11.18281001529637
C        -1.40204400887154    7.53233846300637   11.68821418091359
H        -1.53882322771271    7.85113312852925   12.71168669227481
C        -0.14294431887453    7.17953741248980   11.24101640208555
H         0.69695240811535    7.21227505094878   11.92118511538369
C         2.22107424743700    5.11277954552147   10.52927855946587
C         1.29684231656727    4.27521762685212   11.14660359672099
H         0.24279003281534    4.39521525147896   10.93607743170045
C         1.71732921956716    3.30309043111800   12.03562752056176
H         0.98992885749752    2.66489438226829   12.51656761343183
C         3.06603717238035    3.14358070365334   12.30650220753206
H         3.39316177649833    2.38394385841893   13.00090255123155
C         3.99434326840926    3.95583908411952   11.67632166750682
H         5.04840869032163    3.82679711925518   11.87529299154312
C         3.57635971946276    4.92832387317380   10.78704675500537
H         4.30730738849128    5.54599352693491   10.28520443061623
C         4.19650691675458    5.82587941552529    6.63313032405245
H         4.72307563128338    5.95787947266862    5.68603557725124
H         4.81065350427840    6.34897282520144    7.37188856193733
C         4.23558446596041    4.33385485310684    6.97819001910847
H         3.76203892803431    4.14225099538185    7.94125130667593
H         5.26632198168913    3.97415901280828    7.03541194685989
H         3.71643864164523    3.74656440169078    6.22295592948995

