74
CSD_code = PIWPOD | q = 0 | S = 0 | Stoichiometry = C31H39N2PZn | MND = 4
Zn        1.32721881035002    7.43055014931555    5.03240250071361
H         0.36300584214171    7.44167184195585    6.15897377186854
P         1.00694055917101    5.18653044018787    3.73444390935411
N         1.65827958311517    8.95301808493709    3.81576335735083
N         3.12183342165481    6.61740493321468    4.75726080917018
C         3.01480419446063   10.44208289107670    2.41016976981926
H         3.55630354256658   10.17000987926677    1.50594125497712
H         3.60300518001426   11.19135825544083    2.93859810149899
H         2.05864913168448   10.88139096980985    2.13567389968048
C         2.82925722992503    9.22746647507297    3.28955448387767
C         3.96925531122391    8.44127415894217    3.47469144890849
H         4.86221665947756    8.82346607752693    3.00056770485857
C         4.11533070160608    7.22756766769737    4.14225684009672
C         5.48710344596944    6.59772617001337    4.09113262787392
H         5.78093782856686    6.22839338876418    5.07251675925375
H         6.22634536813804    7.31845215459206    3.75381724370982
H         5.48997123199380    5.75750561690728    3.39445870788950
C         3.29080610040676    5.26263683454682    5.23177532399785
H         3.71733329997349    5.25033671510187    6.24632175803967
H         3.96565126237484    4.69599761215671    4.57713003700053
C         1.92785824114114    4.57030226066971    5.22814226466593
H         1.35382446717681    4.86311417366483    6.11050296368745
H         2.03357839630042    3.48204586804486    5.21486594712747
C         2.19005223968503    4.64387323364521    2.45029368887383
C         2.78825589747065    5.59674970355172    1.63546383048569
H         2.52337119189575    6.63792594616652    1.74682501143802
C         3.73446920563389    5.21998618769460    0.69804068992550
H         4.19984117876592    5.96807700144244    0.07280763251942
C         4.08520537267247    3.88754144889013    0.56439380122063
H         4.82466957244336    3.59174586150494   -0.16548278187723
C         3.48534751008827    2.93070577743172    1.36878406710038
H         3.75650716925116    1.88989354270613    1.26388563732222
C         2.54317437704863    3.30450745078926    2.30830189663477
H         2.07256352590807    2.55465571850176    2.92987908362501
C        -0.28265823242972    3.90069118742748    3.58014927643351
C        -0.67048774573786    3.44779382893760    2.32199703853069
H        -0.14399923289586    3.79830391052995    1.44425648300712
C        -1.70842431670145    2.54451382329085    2.19171569604365
H        -1.99317733522228    2.19044790280681    1.21140250806630
C        -2.38504117115851    2.09639920052807    3.31437772281746
H        -3.19508283978045    1.38947769990688    3.21238804381680
C        -2.02612600066636    2.56595940535471    4.56692316421128
H        -2.56041675308333    2.22917348805883    5.44355144758027
C        -0.98811806820058    3.46996672829220    4.69976565073177
H        -0.72430226629620    3.84572787465413    5.67803690579082
C         0.55660790122095    9.81519397053531    3.62442019708579
C        -0.43204769388688    9.46709576387243    2.69358846646746
C        -1.53795194168079   10.29013631364304    2.54275383782856
H        -2.29874034661735   10.03447674696432    1.82019636429356
C        -1.67970703925366   11.43477119384283    3.30261532311609
H        -2.54555149370694   12.06795711494377    3.17482093115199
C        -0.71114516975986   11.76281021120845    4.23164115898983
H        -0.83447284514978   12.65251436889996    4.83073760649827
C         0.41559719068842   10.97260491568484    4.40467152782997
C        -0.29887892900885    8.21622488123936    1.85674947640222
H         0.61028657273003    7.69332031098012    2.16961240415809
C        -1.47573684046824    7.27000516551348    2.09567148909630
H        -1.55979205315342    7.03978344021475    3.15727612171985
H        -1.32493774638986    6.33809481618645    1.55314264548675
H        -2.41145420564894    7.71312828946726    1.76380837103731
C        -0.15955938173396    8.55890327673177    0.37255588209182
H        -1.05134413283390    9.06120619598383    0.00477129867868
H        -0.01078508623474    7.65163259167963   -0.21005727512237
H         0.69286890549801    9.21611051679005    0.21216315699346
C         1.44114223451238   11.34522228347693    5.45097586508528
H         2.28864422369461   10.65718685937668    5.37254030097328
C         0.83937275811704   11.18422585106603    6.84922582122376
H        -0.01361929201844   11.84595941983557    6.98072235560616
H         1.58213366352343   11.42178627509385    7.60809606922917
H         0.50773159724177   10.15868217661422    6.99486145154062
C         1.96123100964309   12.77059209710643    5.25112261640405
H         2.31696963763580   12.91248132428831    4.23298822334481
H         2.78387968686842   12.96674178928838    5.93596742061929
H         1.17992572799218   13.50173229818113    5.44314291239953

