103
CSD_code = PIWPET | q = 0 | S = 0 | Stoichiometry = C43H55N2OPZn | MND = 4
Zn        0.58238540421910   12.59437849264841   14.24265141608324
O         0.22808168446925   14.33983115145542   14.31676301856148
P        -0.82194676818443   11.80335414791516   12.30695230203167
N         2.37874855274371   12.09143778202771   14.67529319919270
N        -0.36178194484052   11.10770671965617   15.06114861399769
C         4.04175673852231   10.83421955791706   15.97035621484408
H         4.76463187737176   11.34412780843823   15.33844894353842
H         4.23628551765455    9.76367652196422   15.95073029930782
H         4.17670175345908   11.17737436460062   16.99523372083075
C         2.62668320709610   11.11908908627672   15.52632815748223
C         1.64598611211234   10.27718501612381   16.05649037995566
H         2.02147422972721    9.52287317944922   16.73300015139041
C         0.26974550632431   10.24841422614854   15.83765070083477
C        -0.50172136919802    9.14369222224675   16.51377808978706
H        -1.36878679864678    9.54539261937181   17.03575093844939
H         0.12271030790576    8.61440499379781   17.22688795214023
H        -0.85906810122393    8.42830808054748   15.77187199413524
C        -1.75815902658089   10.90988780560229   14.74742230419722
H        -2.39356928677990   11.14083654522846   15.61587842914259
H        -1.93742661287850    9.86088940262863   14.47154822862399
C        -2.17101367058912   11.79616760323885   13.57194467711485
H        -2.29628319324427   12.83065423964500   13.89958400665552
H        -3.10880559085566   11.43857747108107   13.13473462343019
C        -0.83449299613619   10.02453917883645   11.88035493259122
C         0.17683548120718    9.20863402855973   12.37491014894402
H         0.96761620631617    9.63909937380763   12.97303075828076
C         0.16530558977825    7.84922921934175   12.11659313521761
H         0.95296179761579    7.22107656419617   12.50664417655524
C        -0.85318233932136    7.29636136506375   11.35855017934348
H        -0.86168194739514    6.23593485721683   11.15378001857519
C        -1.86309170716955    8.10555962770334   10.86229234001723
H        -2.65907442616464    7.67530943054875   10.27201741358004
C        -1.85757950613846    9.46347301383316   11.12244630628861
H        -2.64512874486910   10.09357989421055   10.73262937448593
C        -1.63654890716520   12.53714389543209   10.85584287467172
C        -2.70653295872761   13.41905112739151   10.94854773951632
H        -3.12618479022392   13.67360358025092   11.90912159603812
C        -3.22924304716765   13.99200139450278    9.80236024456444
H        -4.06058927903540   14.67618723980615    9.88233234341807
C        -2.68744791832381   13.70012148566421    8.56238912666104
H        -3.09870630782293   14.15121576551896    7.67153640719207
C        -1.60739653049735   12.83603692982543    8.46639425598542
H        -1.17340153539926   12.61562829417097    7.50197110307318
C        -1.07853128635933   12.26567348179246    9.60772146986789
H        -0.22916649784995   11.59819917975641    9.54230993280565
C         3.40792696770988   12.92642905128525   14.17790495377047
C         3.93806071071091   13.95447578363122   14.96851206691717
C         4.90158626775455   14.78624121023090   14.41564380606399
H         5.31174835379524   15.59157519713544   15.00546479803616
C         5.34734908472426   14.60170137729090   13.12185711692159
H         6.10786663664604   15.25110132883685   12.71320281418900
C         4.81012501980032   13.59212270342702   12.34550081278103
H         5.16038242255296   13.46292021282252   11.33352087080544
C         3.82837453310423   12.75314460236267   12.85038925170925
C         3.22962784914723   11.64765078404308   12.00930027984300
H         2.19515640186363   11.50243034781758   12.34766606773503
C         3.99179503184647   10.33802014295073   12.23213083406860
H         5.04029870782458   10.46370397829451   11.96821533001192
H         3.57073356694343    9.54771393341344   11.61311727522214
H         3.93260190933070   10.02973698681206   13.27241458105341
C         3.17416331547616   11.97460520077015   10.51843219041842
H         2.72530621978993   12.95117302956771   10.35795599323951
H         2.56837366658547   11.22911246286682   10.00579595669497
H         4.16524385638215   11.96215982100759   10.07085096908478
C         3.44592741123471   14.20354397761314   16.37550854559257
H         2.80893518678388   13.36851707264026   16.68073537835763
C         2.58363400634623   15.46799984535044   16.40049440386600
H         3.15222632228423   16.33193925033433   16.06282077299161
H         2.22731830081228   15.65913390588966   17.41091750614031
H         1.72452065546176   15.33498043079609   15.74699887646978
C         4.60171463856859   14.31359356336108   17.37308251371375
H         5.27669417886685   13.46494870665156   17.28099808381563
H         4.21349918563366   14.33864879385243   18.38935978235676
H         5.17411463713762   15.22328195903401   17.21052980500177
C        -0.71548122854918   15.03125645392719   13.68793774107655
C        -1.93302845145380   15.32269765347768   14.34176110436100
C        -2.89127132140297   16.08041899712524   13.69030558924084
H        -3.81942232198728   16.31713414910799   14.19015253137711
C        -2.67500119694224   16.55068863613967   12.40829263185289
H        -3.43124653499673   17.14325148412807   11.91333119520926
C        -1.47893927325271   16.27694835601044   11.76846409651486
H        -1.31941886034993   16.66560629933110   10.77439432827161
C        -0.49459412176544   15.52284796582078   12.38213718631850
C         0.84281244435007   15.24660167228076   11.73637216624373
H         1.12062071619414   14.21043274883429   11.98804045821525
C         1.90460568132477   16.16393149881051   12.35019561036028
H         1.65646424934421   17.20619306453885   12.15774790631277
H         2.88500362473604   15.94929613522124   11.92902238560494
H         1.95143821412192   16.00658644873294   13.42313450109945
C         0.84150682493569   15.39078408200538   10.21744497273474
H         0.04423321507402   14.80286371104512    9.76813446027701
H         1.79346028973682   15.04889704594519    9.81425756881975
H         0.71718136214834   16.43199780658970    9.92830627552809
C        -2.11807917656121   14.85746173674030   15.76905236112926
H        -1.46098561739500   13.99010831089957   15.92189479457237
C        -3.55223876930216   14.44615700231952   16.10252755837435
H        -4.20688893514174   15.31355706377897   16.14434769219046
H        -3.58087752907434   13.96111649945311   17.07707474221798
H        -3.94910365619812   13.75294295198944   15.36224714294887
C        -1.64903827578361   15.96184936394879   16.72054368203942
H        -0.61093157383370   16.20964257661366   16.51551811435328
H        -1.73397574823488   15.63748843334012   17.75642879977637
H        -2.25197595258893   16.85779822630660   16.58378652670443

