106
CSD_code = PIWPIX | q = 0 | S = 0 | Stoichiometry = C44H57N2OPZn | MND = 4
Zn        7.96453689548297   12.15203842047128   18.31836506399300
O         6.98765633426240   12.24503358515372   16.80494796017846
P         8.70947924514273   14.55319530061212   18.65088595806385
N         9.17564527532065   10.66406980328998   18.56850463912080
N         7.18673089630318   12.22305933400906   20.10627353852402
C        10.03932597442336    8.75972434981950   19.85791570139691
H         9.35636401176139    7.91104839491737   19.88256702931956
H        10.60235832362321    8.75801110313988   20.78912347413526
H        10.72161410908147    8.62497444293033   19.02263424485466
C         9.23648653697988   10.03321424529779   19.72292731563273
C         8.60091435464358   10.46488388581989   20.88817710999571
H         8.83881483696331    9.88194929523301   21.76654933656253
C         7.65198927190447   11.46994910964957   21.08197825977264
C         7.14761478951842   11.62651711622139   22.49880746477636
H         7.17918133080391   12.66793202817623   22.81247542346888
H         7.75700234647655   11.04309363450196   23.18250555227185
H         6.11953281048975   11.27353827577207   22.57949236888399
C         6.13636694909706   13.18650410103392   20.36534511481733
H         5.51901842566417   12.88682531199595   21.21779055440431
H         5.49191777379419   13.21118398324328   19.48487409710311
C         6.66665079801195   14.60646571276407   20.60672599097830
H         7.47612542974592   14.57854430455169   21.34207785240471
H         5.85253635200218   15.20382720651840   21.02702596650847
C         7.15436975379438   15.29129271647036   19.33251918864824
H         7.34599491975770   16.35159222892571   19.53270322864449
H         6.38958345671136   15.21219874096050   18.55470033493638
C         9.80901340416378   14.81564325420446   20.08924497239909
C        10.28652839916842   13.71428558105982   20.78926492645016
H        10.02256014942880   12.71892283802910   20.46384243163936
C        11.08731369862081   13.88921547773779   21.90474225370555
H        11.45308069038024   13.02704765065143   22.44276129503289
C        11.41867459671707   15.16516173001709   22.32703484696806
H        12.04536280705894   15.30349234357364   23.19572296229150
C        10.94550032403444   16.26773251790857   21.63229651345549
H        11.20272866892156   17.26425439077947   21.96073120831798
C        10.14372337509444   16.09672868049227   20.51958920805043
H         9.78247590998571   16.95892465270952   19.97616132211338
C         9.28151788758092   15.88196801594497   17.54301369154166
C        10.65175005412215   16.02899158969984   17.34203873982734
H        11.33758381959534   15.38201055662260   17.87102352393279
C        11.13273539069300   16.99915235638094   16.48377567665516
H        12.19748240793373   17.11011884625673   16.33875201796696
C        10.24840594220413   17.82239453345589   15.80430360206294
H        10.62307400994510   18.57926014767100   15.13123679765715
C         8.88453272001205   17.66391027618671   15.98239351247827
H         8.19178113228040   18.29300365728026   15.44373746292041
C         8.39815350127713   16.69547458077121   16.84281659092079
H         7.33266174324352   16.56955701631122   16.95443790658559
C         9.82550894493584   10.13465165149007   17.42742660422731
C        11.04099785332683   10.70210742373843   17.01360606111365
C        11.65911193726046   10.19142496837788   15.88170060258416
H        12.60195435245218   10.59699193772204   15.55102079563700
C        11.08206796421484    9.16398520873179   15.15857295656660
H        11.57546422407243    8.78255890242648   14.27627236752177
C         9.87253470491281    8.63244583314746   15.55967582949539
H         9.42313830411213    7.84247821920273   14.97774486306004
C         9.23129879668084    9.09523059629702   16.69968276228551
C        11.66085160257431   11.83092545143298   17.81134236674601
H        10.83961928589759   12.46482425655442   18.17680622770050
C        12.42014525896520   11.28587866067907   19.02551428238410
H        13.18437798700641   10.58045335193994   18.70401100934015
H        11.74926593001640   10.78087553752844   19.71253033248757
H        12.90409577476305   12.10188876729533   19.55961304251258
C        12.59776369868898   12.71751836345395   16.99359955655644
H        13.50531657680148   12.18444877660464   16.71919065669760
H        12.89234423009748   13.58029750186612   17.58866312121213
H        12.10731435986784   13.07365401592489   16.09233546200748
C         7.90573993425381    8.49852310103927   17.11456446057437
H         7.64676003129903    8.86999544227283   18.11048705534181
C         6.80224556736990    8.95330738923070   16.15616866798122
H         6.69265150488343   10.03412296356393   16.20748160663350
H         5.85430941068175    8.49638121435762   16.43378088570306
H         7.03793692589544    8.67050742931327   15.13230456224525
C         7.96991649994587    6.97004988807685   17.17853911074607
H         8.05368907514358    6.53944866756471   16.18394170697110
H         7.06392256436591    6.57968362584954   17.63792296991836
H         8.82516822484703    6.64106640371035   17.76571786544356
C         6.67246825321699   13.31298744933478   16.08173665082129
C         5.36647155492745   13.84887378278631   16.14664111246692
C         5.04358046761208   14.96723863400835   15.39807411441720
H         4.04362331090508   15.37412456250863   15.44767679305739
C         5.97733835544217   15.56438695407216   14.57250547770331
H         5.71502985806746   16.44151974428855   13.99798982693442
C         7.23756778347771   15.00571340595442   14.45326279376553
H         7.94059498909837   15.45461019498410   13.76867595505560
C         7.60242958615456   13.88900348570197   15.18477480179138
C         4.31821599613265   13.11964755207286   16.95474215634082
H         4.84642606836917   12.45756452972829   17.65079474911345
C         3.49475898335168   12.22978538984546   16.01887079386160
H         2.98134026370264   12.83524431455215   15.27423487352015
H         2.75341295658438   11.66514504451922   16.58199421605716
H         4.14850115122400   11.53070295408870   15.50319420616312
C         3.39798327754872   14.05017147595846   17.74583439187160
H         3.96909082448391   14.78018091169794   18.31767794636927
H         2.78801015924436   13.47225620577802   18.43850010601417
H         2.72695335562608   14.58926659860463   17.08115110939502
C         8.93044786648578   13.19615881854043   14.98861566313923
H         9.30827326709412   12.90193293646275   15.98057441958523
C         9.98965966080851   14.04901832822051   14.29767919863237
H        10.93328457710734   13.50666524736038   14.27059383199288
H        10.14375797386661   14.99079119769285   14.81862692087550
H         9.70432836385259   14.25746274807598   13.26885803222976
C         8.70190538270564   11.91422954879443   14.18137922858481
H         7.99532685790998   11.27325736239322   14.69783403854347
H         9.63523824409845   11.36893626101959   14.05729921408175
H         8.30051725134840   12.15918148634320   13.19947535355020

