77
CSD_code = PIWPUJ | q = 0 | S = 0 | Stoichiometry = C32H41N2PZn | MND = 4
Zn        2.66792437022156   11.01847866143190    4.99021195957645
H         1.34072826987184   11.66548003070453    5.14574121709673
P         4.30265991413948   12.77314444560449    3.89775764278699
N         4.18759203396637   10.98394905337731    6.25661623444586
N         3.06851374809242    9.27263050832281    4.16311585111220
C         6.31304810141493   10.13624162847082    7.18361816318092
H         6.82492097597666   11.09399967919490    7.11344189914728
H         7.02774669293265    9.35067005783032    6.95646857992742
H         5.97907629263373   10.00287953719051    8.21312999008894
C         5.13508830491271   10.07061010051273    6.23704323828104
C         5.11312225242766    8.97236957610751    5.37542057598365
H         5.95419730598915    8.29907657766394    5.46186178647031
C         4.15196172972979    8.58171996546393    4.44209132162387
C         4.41428811734746    7.27315811813266    3.73311079282699
H         4.04119669937142    6.44693721546834    4.33762048113504
H         5.48156645054981    7.12527066623365    3.58374073887142
H         3.90746154186638    7.24135564797649    2.77076256316212
C         2.09013223924673    8.73354508270595    3.30114518891062
C         1.16368080693748    7.79961998685798    3.79038444768359
C         0.17886125805077    7.32291715790414    2.93887036642885
H        -0.54685083322938    6.61336437499687    3.30679044842418
C         0.11050098441542    7.73766097552124    1.62254739593961
H        -0.65511921642976    7.34552002139353    0.96902540835462
C         1.01998728120081    8.66289602211601    1.14982111508766
H         0.95864726072147    8.98891770345115    0.12200916541076
C         2.00989015319365    9.17754064269242    1.97449993461486
C         1.18715443237830    7.36025731155390    5.23697523444740
H         2.11632945407290    7.71037899972500    5.69649657213030
C         0.02394072656959    8.01552009881343    5.98651144419561
H         0.10636467655943    9.09896075983520    5.92444384929057
H         0.03815445855603    7.72400628569282    7.03484425100184
H        -0.92836863663890    7.71522502029438    5.55492969898071
C         1.12973403393705    5.83785149269353    5.37927553455374
H         0.15668948635849    5.45218916342615    5.08568423086513
H         1.30570686266774    5.55425946548030    6.41513654908594
H         1.88568640738976    5.36241496759094    4.75743267125651
C         2.97871879768294   10.20489788959159    1.43513987581695
H         3.64695011823030   10.51249414207058    2.24750520004354
C         3.83948668640973    9.62233275551794    0.31292873310073
H         4.38613835882905    8.74892080597544    0.66325426917529
H         4.55861856630504   10.36395414107393   -0.02977885672039
H         3.22476545183643    9.32335209425707   -0.53291581899814
C         2.23038217779235   11.45103140180978    0.96029704344567
H         1.54124874493093   11.21131409780466    0.15440428537460
H         2.93331033829510   12.19990277936614    0.60029311332061
H         1.66265410940944   11.87928493330799    1.78495191557372
C         4.26200018392194   12.09412265181223    7.18063181294754
H         4.73578133484657   11.81038314998051    8.12784882091310
H         3.23450751532122   12.40280933213678    7.40357327322683
C         5.00684181561264   13.30144320551166    6.59527099251397
H         5.07902384247124   14.06773428702997    7.37275002241912
H         6.02288792098337   13.00886123699898    6.31785539568625
C         4.30423916377406   13.89853619816837    5.38082813708812
H         4.77360319816534   14.84825733755015    5.10495181328281
H         3.25726989755496   14.09618271677531    5.62887637864030
C         6.09325199070525   12.45910405643588    3.69869927591395
C         6.50914068044317   11.16857028122404    3.39414645157321
H         5.77321907882105   10.38776628415853    3.27651034346691
C         7.85566150275272   10.87989428682324    3.25524468803046
H         8.16858336112509    9.87229901100169    3.02353251768217
C         8.79858129721713   11.88030661815442    3.41368301676470
H         9.85044374803905   11.65738587315484    3.30972965805218
C         8.39040009326372   13.17388534182636    3.70050031792594
H         9.12422612163627   13.95900150071563    3.81459116311745
C         7.04651141128048   13.46482590517024    3.84032783343801
H         6.73835074727570   14.47930196022686    4.05073440793966
C         4.04263841064917   14.03000343549260    2.59210376169976
C         4.84493271788828   14.08958203938439    1.45756246772215
H         5.69126737620964   13.42356777878144    1.36188646799171
C         4.56802018787438   15.00076107373198    0.45403978389373
H         5.20291659802225   15.04533617316658   -0.41922201034183
C         3.47971113714769   15.84969895801560    0.56376204150339
H         3.26575784377495   16.56018870270992   -0.22090405401414
C         2.65937155795553   15.77636027617332    1.67792580378895
H         1.80058210324655   16.42656375799988    1.76022281480113
C         2.93319047583245   14.86646032961279    2.68140906337535
H         2.27929869893141   14.79500419695477    3.53937123651090

