65
CSD_code = PIWXIE | q = 0 | S = 0 | Stoichiometry = C31H26Cl2N2O2PRe | MND = 6
Re        2.01235383358821    7.99789059836988    5.76634998735117
N         0.74216987664772    7.35925652001291    4.12748844114663
N         0.93580643452506    9.24680796163278    6.36123055871693
O         3.04234220791226    6.56043689288797    4.90441743150531
O         3.22562124115580    4.99002902367248    3.32929655635334
P         3.87113153167517    8.19610780094160    7.29563000369301
Cl        3.21916250376808    9.43435609225306    4.30228893436667
Cl        1.06350655800542    6.25324243733535    7.06980146218150
C         4.57715926582918    9.84419039225561    7.58794549387130
C         3.85243772103713   10.98352738743488    7.26358258552026
H         2.89276182343815   10.87534781814016    6.77786022300763
C         4.37729072652412   12.23385409423063    7.53992277515291
H         3.81836626840109   13.12011370095620    7.27945122176017
C         5.61827504499427   12.34841540727679    8.14400121560875
H         6.02942470185418   13.32465928525026    8.35448063752761
C         6.33695762963508   11.21111739636798    8.47869562346791
H         7.30397644903373   11.30148773114889    8.95138355933769
C         5.81826114444064    9.95915260764058    8.20709143567184
H         6.37587158722330    9.06986264024896    8.46724920327016
C         3.56708823705636    7.65531121706586    9.00246964859480
C         2.34775950946607    8.01541411608104    9.56814707486351
H         1.62495084759259    8.54049789885293    8.95618364084725
C         2.06851039658453    7.67745081336472   10.87829188652874
H         1.11788663987399    7.94555142671989   11.31433068989177
C         3.00567433032426    6.98470047899627   11.62892576924785
H         2.78451984003459    6.71074689109339   12.64992149749982
C         4.22470245226770    6.63785693399020   11.07100635971967
H         4.95431010166781    6.09844121307056   11.65725400108621
C         4.51196009597240    6.97440519236275    9.75961801819593
H         5.46233103921848    6.69594659751587    9.32543520098314
C         5.21143136980301    7.17702709813546    6.64810819115901
C         6.19317369781031    7.73484032670031    5.83519639719539
H         6.21070895566735    8.80325720238601    5.66873603293500
C         7.12108597971803    6.91092227173545    5.22363519481112
H         7.88040084629757    7.34073425757059    4.58679009033048
C         7.06147691176625    5.53890232816573    5.40511621755687
H         7.77816507136350    4.89899072103978    4.91183054896135
C         6.06912202180166    4.98106152373647    6.19648252806088
H         6.00819475187357    3.90928833707721    6.31368967342905
C         5.13863083492443    5.79434283042416    6.81365186399993
H         4.33658881538288    5.36715133646326    7.40222269306699
C         2.65050067291890    5.89194663091685    3.90025816305920
C         1.26798501461955    6.35686147092912    3.42486561816443
C         0.62152181117731    5.76908836275425    2.35050131581753
H         1.11475342506668    4.96058816000998    1.83412174729838
C        -0.62702201545039    6.24558166364862    1.99259198239728
H        -1.16570375609452    5.81368006458254    1.16298759731390
C        -1.17142667358008    7.29169713289358    2.72611383712964
H        -2.14152064738748    7.69526335916821    2.48351297293567
C        -0.45678886089173    7.82120244946476    3.78496330834915
H        -0.84663510325148    8.63502239350829    4.38181575527047
C         0.04925928984748   10.18519093229981    6.70431695828174
C         0.05959620791714   11.44051611036993    6.06493679577420
H         0.79767548245767   11.61518787132176    5.29661816615525
C        -0.86029355497101   12.40113345428585    6.41966542906629
H        -0.84465591300811   13.35976015619977    5.92173479012351
C        -1.81123355313964   12.15916970872110    7.40868704455967
C        -1.82115969577805   10.91407738676474    8.03868860264475
H        -2.55778342177974   10.71689843601794    8.80400255117537
C        -0.91388741009788    9.93690001057410    7.70249006588525
H        -0.91819407820744    8.96781379352112    8.17762283004956
C        -2.81725410541894   13.19928352398123    7.78433293904927
H        -2.56774263068536   14.16223849148690    7.34711117456744
H        -2.87279581097080   13.30520616214900    8.86610575633040
H        -3.80604396907403   12.90669547360811    7.43074403022303

