91
CSD_code = PIWYIF | q = 0 | S = 0 | Stoichiometry = C44H40Cl2NOP2Re | MND = 6
Re        5.39313351205518    8.35745439946342   10.11603406571126
N         6.71848103018511    9.37392991465711   10.68463648979460
O         3.96616146610108    7.31917481112373    9.64086341951528
Cl        4.18193647441045    8.57533940974729   12.22018476626927
Cl        6.31039277447165    7.90940959519818    7.95930457199256
P         4.40272676392994   10.25431522076523    8.83846997377246
P         6.50266778338696    6.45334023953302   11.30588379242365
C         5.47050911569492   10.90813845943420    7.51949300262079
C         5.02058682496376   11.14995417837108    6.22746604792444
H         4.00101894431277   10.91847845628636    5.95098498993488
C         5.88542369536018   11.68236426587655    5.28674575776911
H         5.53422622351300   11.86363952825882    4.28106044854192
C         7.19368332025730   11.97755969362071    5.62879166785306
H         7.86557218001607   12.38597443328213    4.88821714131272
C         7.64211736222103   11.74299127655818    6.91931354371992
H         8.66363238751206   11.96824146713164    7.18787113539750
C         6.78449775929418   11.21259344094087    7.86288131693679
H         7.12591338686689   11.00633409481887    8.86839462288933
C         2.89674606474302    9.71529869852584    7.99045287194914
C         1.63951405290271   10.18342686381409    8.35752573016071
H         1.54752595859750   10.93356027948519    9.13091071684377
C         0.51066141103675    9.67996799585708    7.73398536860764
H        -0.46565651957409   10.04479583178932    8.01865026364816
C         0.62972401487427    8.70595923882764    6.75610890435219
H        -0.25490420566084    8.31312257766966    6.27627757559801
C         1.88179706969785    8.22802007018368    6.39918570787734
H         1.97333057077195    7.46124542606259    5.64354635840088
C         3.01457088099609    8.72533853195616    7.01488840648216
H         3.99560842009061    8.34599353745124    6.75804374425371
C         3.91329281848366   11.78746508681998    9.69216030521214
C         3.71020639186033   11.78317551956341   11.06751809298390
H         3.85071484386288   10.86881252400314   11.62812197263776
C         3.32094598680381   12.94642261243477   11.71022463834851
H         3.16335798956939   12.93872681907713   12.77857526138513
C         3.13308104815242   14.11218642445433   10.98751415454042
H         2.82993559337342   15.01913895882519   11.49008889445685
C         3.33374175969769   14.11712261166980    9.61562808937664
H         3.18605764328919   15.02569031981518    9.04989650689951
C         3.72420237822919   12.96098445366798    8.96672494864177
H         3.88323894516859   12.96585025290492    7.89729669636132
C         7.52771726212206    5.36064622291531   10.27891023657864
C         7.50844082710333    3.97346873346180   10.37431418648019
H         6.84993940521876    3.48285679135571   11.07752814853084
C         8.34225873843816    3.21737465425785    9.56861374014747
H         8.32228838899846    2.13955345435308    9.64302364675214
C         9.19752721702716    3.83547917950992    8.67148428663788
H         9.83905875034897    3.23809751317703    8.04031961127061
C         9.22989088813614    5.21834786976963    8.58495733586022
H         9.89508694235117    5.70384242213048    7.88685113848432
C         8.40126650102430    5.97936127451076    9.38695435350031
H         8.40484096279992    7.05820205794777    9.31869757826869
C         7.66527794359797    6.99502699580080   12.59943948863264
C         8.95385483370058    6.47805252901812   12.68531855576674
H         9.27616112299611    5.70344060398619   12.00464125526939
C         9.83078109379936    6.96014483339958   13.64074483349869
H        10.83124119337355    6.55638545645778   13.69818675650184
C         9.43321295075795    7.95726986705830   14.51504775227333
H        10.12521594869673    8.33658185469264   15.25246077382074
C         8.14778423135172    8.46708202524272   14.44017966927967
H         7.83205671472705    9.24524659362064   15.11860350426996
C         7.26607981534073    7.99352448355169   13.48662756119615
H         6.26872842600623    8.40473559916246   13.41455868670647
C         5.32304887224910    5.34905543830915   12.12319173777416
C         4.52092805913282    4.55232977735301   11.30735555458067
H         4.66234730021375    4.58076188643023   10.23403032761180
C         3.55257023685747    3.74074273290141   11.86629821232017
H         2.93224414145213    3.12456862375760   11.23111862224033
C         3.37274524023308    3.72613671235865   13.24085432472928
H         2.61160893043439    3.09619746399329   13.67741691000802
C         4.16199047493975    4.52409504704348   14.05233290418500
H         4.01512023228158    4.51782271434871   15.12230724589143
C         5.13513950012465    5.33838889282559   13.49997593426359
H         5.74320051132682    5.96897564927103   14.13157186037601
C         7.65987772515427   10.08414508662416   11.31409863049437
C         7.30838307053758   11.13798036732145   12.17903802521151
H         6.26302565130859   11.38245983685574   12.28677631727469
C         8.28067749607377   11.81141480877432   12.88159659049797
H         7.99379288114160   12.61037691977808   13.55073029591508
C         9.62719619652812   11.47967726741458   12.75430045411559
C         9.97772603408363   10.45650855614626   11.87841780532298
H        11.01914605547317   10.19153762306832   11.76203003434251
C         9.02353355072975    9.77124635910100   11.16229162362326
H         9.29797890206484    8.97313587930281   10.48947213864122
C        10.67440496838567   12.22346904679073   13.52399606985934
H        10.97219627310498   13.12101730364668   12.98019085329209
H        11.55942539832495   11.60842461136853   13.66835110922971
H        10.29477523672137   12.53268289957485   14.49521354957516
C         2.72409375349802    6.81688983762533    9.83690587583184
H         2.56644526905042    5.90537098456518    9.23970067568876
H         1.95529388499160    7.55182625002991    9.54749479868761
H         2.56889987318313    6.57250288799982   10.90155645521820

