43
CSD_code = PIWZOM | q = 0 | S = 0 | Stoichiometry = C19H21N2Y | MND = 16
Y        23.13972665114684    4.27985135134639    6.33967531367725
N        24.31144342827572    5.78408347240821    4.86386019000543
N        25.72094177434138    7.37286735458443    4.27516223075218
C        25.25786492816368    3.63748283134895    7.28243545936528
H        25.71694456270463    4.47597539168459    7.79996100077348
C        24.37223364876500    2.68748642322450    7.91178736355761
H        23.98847820734574    2.76609025294442    8.92401537731310
C        24.39362023333368    1.51807781697483    7.14099618931536
H        23.85974258636188    0.60827108212037    7.36378142966569
C        25.25115717051107    1.71503553910571    6.05427934742877
H        25.47507687049602    0.98724383623893    5.29220773702818
C        25.79140738816279    2.99562131411143    6.13367953194782
H        26.54844702573244    3.40020275503398    5.47660989292209
C        21.97932723661058    3.68692600241702    3.84077637881785
H        22.44109429335495    3.88878289520976    2.88439502396648
C        20.84813652210752    4.32857506580298    4.36572189727178
H        20.31797164306234    5.15044095909552    3.90907838008394
C        20.47713427003726    3.67771617593784    5.54773641772045
H        19.59767959265697    3.89071115919401    6.13812444675724
C        21.38766531254063    2.62165876330236    5.78229005825441
H        21.23961180811155    1.80665563323828    6.48308801727382
C        22.32822266621351    2.62299727470563    4.70213334268251
H        23.00538480759367    1.81426079380126    4.45858298666756
C        22.89341416347387    7.30319849027977    7.03304766186685
H        23.00186715518996    8.14371782819680    6.36403446449804
C        21.82658348788031    6.39758599320071    7.03606832910132
H        20.90219400542109    6.51209127288634    6.48414293627300
C        22.04052543014106    5.47327078906369    8.11744298754174
H        21.25916650343192    4.87749965986890    8.58612291170220
C        23.24598237361374    5.87211731271945    8.75847232076388
H        23.64465463525399    5.44313141867003    9.66618709772166
C        23.76572447576041    6.96834720345551    8.07684913381456
H        24.67070647792876    7.49676324992154    8.33206517199742
C        23.73008103541153    6.56130532836873    3.89836624107448
H        22.73788577920299    6.36591880263846    3.54030147195563
C        24.59401048585799    7.54637228278553    3.52677016208660
H        24.49977307299286    8.33631227944180    2.81063249403987
C        25.50729164939787    6.30898238020656    5.06120941966268
H        26.23629598395298    5.94272086521288    5.75936105635439
C        26.89596984949123    8.19732845584839    4.23446358711428
H        27.65822285108126    7.77506486163079    4.88611016894689
H        26.66055702163708    9.20825954094987    4.57247040659744
H        27.28488093525188    8.25019784082641    3.21650396363746

