75
CSD_code = PIWZIE | q = 0 | S = 0 | Stoichiometry = C30H34BN7O2W | MND = 6
W         2.70733634080761    2.23075602541110    2.74500478731749
C         0.87842756431623    2.32196886246058    2.04973292885504
O        -0.22666467459645    2.19643708036068    1.71730285785888
C         1.99061593474336    0.42162721527814    2.95938830623987
O         1.46270274859786   -0.61090510194510    2.90131821387955
N         2.11625354739589    3.01741473032888    4.47294536357407
C         2.91043031314329    4.03183557145922    5.15238324467080
C         3.65167947800482    3.47283682736001    6.34735462726595
C         5.03875463785909    3.51340082806316    6.39352808899051
C         5.72314644754044    2.99175565272407    7.47713308770204
C         5.02700031842382    2.42203237484505    8.52838153106954
C         3.64284326703442    2.38809393124595    8.49638095516419
C         2.95836553614087    2.91385819115849    7.41555853491779
C         0.85011356215658    2.82591126873763    5.02829126807865
C         0.41594025953500    1.53239733730261    5.34274110948797
C        -0.84732098038784    1.30597078512239    5.84933766485895
C        -1.71901674850952    2.36202804786964    6.06154765713904
C        -1.30454609949167    3.64871052880167    5.76595410521157
C        -0.03661333628983    3.88342414346870    5.26996832265746
B         5.62720268412288    3.12176197132781    1.52613770195603
N         4.71804042269197    1.84596760048999    3.45932480827982
N         5.78651050742236    2.40221666703924    2.86841647764618
C         6.91472841898378    2.02826684997205    3.50566228826360
C         6.54457872698087    1.19261994286374    4.54295478164770
C         5.15191320499697    1.09692103138716    4.47004167477538
C         8.27789027238987    2.47648995571530    3.11834114841647
C         4.24727463781146    0.27894833346676    5.32121383907531
N         3.44567749075342    4.20629529710735    2.09419732795789
N         4.71925157183371    4.34406239600960    1.68989053999307
C         4.96247888428317    5.62457389716127    1.34596442290383
C         3.79232560597721    6.33333353472113    1.53993233378020
C         2.86070458250989    5.39920220120283    2.00399478880236
C         6.27346018283690    6.12519131308325    0.85689479366302
C         1.43725181693078    5.65199578315877    2.35548044075063
N         3.65811848939107    1.69705854354109    0.81518885419345
N         4.90562215057958    2.14992186481787    0.56532852158490
C         5.34848780498867    1.65569460739508   -0.60277872834871
C         4.34566162022748    0.85734765506875   -1.12595351557877
C         3.30043330823543    0.91183835839076   -0.20398705451362
C         6.68551075526273    1.94418851108161   -1.18397310418542
C         1.98525784622373    0.22744488719454   -0.30226102961626
H         6.67718262033223    3.43599258616385    1.09217401200604
H         2.27335150665548    4.85427556892352    5.50822900290983
H         3.64555740242861    4.44826658087098    4.45677395717470
H         5.59016698036281    3.96169702555696    5.57852901280444
H         6.80255670705537    3.02925437943587    7.49785017267798
H         5.55993618052444    2.01078512223186    9.37300306832037
H         3.09275288554524    1.95288719499815    9.31768480737113
H         1.87838107057858    2.88624211103958    7.39627870858910
H         1.09907810500905    0.70896212678893    5.19764755166503
H        -1.15337380708134    0.29717279046423    6.08352731974305
H        -2.70924373488142    2.18435399417415    6.45253130167411
H        -1.97527659711486    4.48175364338282    5.92034140454100
H         0.24747326761443    4.89737935630444    5.02800468154913
H         7.18945286480305    0.71702111358338    5.25353523412802
H         8.54958851169583    2.08941857020260    2.13725491275645
H         8.99811836137087    2.11491492720713    3.84744427587341
H         8.33098829920688    3.56316964795445    3.07741960721787
H         3.45266659926915    0.89219485526249    5.74465917792106
H         4.81399377414841   -0.17113816223350    6.13280245747715
H         3.78932600977806   -0.51393764816128    4.72669513632553
H         3.62966736806026    7.37752633484961    1.36560864840038
H         7.06611846047387    5.89468603126356    1.56650098188466
H         6.22144383919927    7.20250460618382    0.72348505637673
H         6.53047995303739    5.66653372431426   -0.09672222559836
H         0.92110626040726    4.71099781807381    2.55108764883562
H         0.94108072908287    6.16874769752804    1.53496633817054
H         1.37217388277942    6.29037112611940    3.23683615044490
H         4.36918408268789    0.31229465377520   -2.04755609264479
H         6.80450740127255    3.01001390372242   -1.37095535414822
H         6.79352111070235    1.40883391326392   -2.12337322679444
H         7.47680693998420    1.62917263431966   -0.50607149169592
H         1.93673200525751   -0.61321652676817    0.38830176561903
H         1.84266036057645   -0.14621045649224   -1.31331788362936
H         1.17611149732668    0.91018325344762   -0.05364008433298

