89
CSD_code = PIXDIK | q = 0 | S = 0 | Stoichiometry = C28H44F6O6P2PdS2 | MND = 4
Pd        5.59192337477439    7.08916324206799    8.79841073825347
S         6.84785819185165    4.76287413827714    9.39325443815354
S         8.27054338377134    7.23399645159956    8.29547919959010
P         4.52407379555901    8.44856585572786    7.40813679603270
P         3.89453058022705    7.27141520827791   10.21790660044737
F         6.42456150029039    2.39430375568861   10.70253945793334
F         5.63408505984445    4.14464693806995   11.67267572381754
F         7.74457660522344    3.73132654454890   11.76199790462253
F        10.27460228103033    8.65818575961779    7.12168773476526
F         8.43125620878323    8.63289868361352    6.01367075663836
F         9.70741876201541    6.90075185742475    6.00560111712179
O         6.89325249007768    6.05213098649387   10.08717121195628
O         7.98049135329904    4.22480650542496    8.74126670363922
O         5.54462690718706    4.53442695912715    8.80252132425042
O         7.21910671425611    6.52463584441051    7.56122252265998
O         7.76734937443729    8.48557480786982    8.82578206196782
O         9.26961603537674    6.54848845742318    9.02443212783324
C         2.97822934558430    8.98442494878099    8.23033297877674
C         2.73564503750158    8.51764486095989    9.53048039935404
C         1.62638758224305    8.98602559536001   10.22294299392865
H         1.44185541946154    8.65521316065891   11.23318565258155
C         0.75303113668938    9.88645670234996    9.63410310428916
H        -0.10469831416004   10.24176531189639   10.18448794556420
C         0.98063013512092   10.32785295699535    8.34265440910362
H         0.30037200072054   11.02685440737731    7.88069933560072
C         2.09322516851584    9.88251798525779    7.64761245130341
H         2.27266884631832   10.24395066001078    6.64585310290334
C         4.10241097564624    8.10051492509422    5.61962660029038
H         3.21457693873016    8.71462537618114    5.40725717109878
C         5.29341335612025    8.72168981622487    4.88649274698825
H         6.19308087170083    8.13708299334071    5.07898594061630
H         5.12009204370654    8.76404704993566    3.81174612796444
C         5.46651101815645   10.11613607070155    5.46651181034083
H         4.61593518206441   10.74373491966632    5.18499266218899
H         6.37724425110465   10.57895555126408    5.09053021881160
C         5.53354202161669    9.96806820809322    6.99122726079665
H         6.55169212416246    9.66956710499540    7.27420429991916
C         3.76959820216140    6.65516650180489    5.22207018723072
H         2.83642104284153    6.38407473470454    5.72391438788776
C         4.85205956489911    5.65888287170181    5.62302018447006
H         5.79511515667626    5.89003922202913    5.13465076882729
H         4.55526669749619    4.65664095460730    5.32286071740347
H         5.01936571485107    5.64727032224700    6.70555184249696
C         3.50715579581400    6.56714090270887    3.71446350036549
H         4.42798521445602    6.68419184256783    3.15081825807886
H         2.79881095319648    7.32805299412219    3.39263910573616
H         3.09047461674471    5.59267857731146    3.47339232089671
C         5.20231385544110   11.24876903236312    7.76559661478637
H         4.15390904408487   11.52451900277338    7.59774326425236
C         5.43065241597848   11.01191783911954    9.25177219887146
H         6.45780559172778   10.69432764887044    9.41220612402988
H         4.76601162571767   10.22882699441393    9.61717467666022
H         5.24519477567670   11.92157693677209    9.81883209934833
C         6.09270701683544   12.39713708524797    7.28917543037850
H         7.13838418562220   12.11559288849335    7.37806007966393
H         5.92055538355271   13.27803149621156    7.90308204763346
H         5.88809806124194   12.66121641634483    6.25569750684157
C         2.85930433752664    5.75731654106336   10.54748798688400
H         3.59382732430714    4.94195887946198   10.56247426027944
C         2.29923584981975    5.95824748212646   11.95635601567373
H         1.43839031586160    6.62923718269685   11.92640507425179
H         1.96851942231539    5.00918722419757   12.37695286292590
C         3.42048657569347    6.53944059909866   12.80315457119178
H         4.14563128751212    5.74866746951902   12.99626161695770
H         3.03971793414066    6.90174664900602   13.75844005558874
C         4.12507631724036    7.67031629476666   12.03346210733721
H         3.62697380609002    8.63170875540222   12.21875717559191
C         1.79844391098569    5.42131437572427    9.49768533012704
H         1.04213410390992    6.21725944726573    9.48235678803128
C         2.45831165019642    5.32710643179786    8.12997859911525
H         2.81514022575472    6.31515466382587    7.83230361382098
H         1.75097433382456    4.96357791891029    7.38809291701860
H         3.31114730136831    4.65180390944218    8.17163654678251
C         1.11223879259389    4.09746253577570    9.83577722846779
H         1.85205152949626    3.30547984141671    9.91398346437874
H         0.40918118598591    3.83318262539866    9.04968202428829
H         0.56209085638079    4.15871503313935   10.77041486500628
C         5.60000398443785    7.79137680623067   12.45786231107794
H         6.11157371871969    6.85697576812088   12.20629968027484
C         6.29985149242574    8.92754450274890   11.72293820031025
H         5.76060770594007    9.86404113244527   11.85897977289939
H         6.39763014945208    8.69669509258232   10.65674698958120
H         7.30689206255828    9.05175184884266   12.11281802519416
C         5.69634265339023    8.02485131045229   13.96754049007940
H         6.73677301688454    8.16161340340269   14.24928773052337
H         5.30674168764796    7.18522634466377   14.53515120508116
H         5.14658766640178    8.92170535046572   14.24927601888652
C         6.68569919887521    3.68281586620402   10.95315515305831
C         9.24161692824287    7.87554384857392    6.78857637135648

