96
CSD_code = PIXGOT | q = 0 | S = 0 | Stoichiometry = C42H48Cl2N2PSc | MND = 4
Sc        9.78115099957046   -0.47028709280768    5.73350927638899
Cl        8.98279516197657   -1.43226085610268    7.65018150337293
Cl       12.02933489526065   -0.79056006705633    6.02692950791733
P         8.25749417249044    1.86213248141049    4.57564310962316
N         8.45884248306412   -1.08812145598393    4.26898384603015
N         9.71135173641469    1.54454272025326    5.19958822242593
C         8.28818753308038   -2.50895926074628    4.38120390853700
C         7.08542450412867   -3.02313828564074    4.89884188406370
C         6.91080119443150   -4.39793668686717    4.95768573336544
H         5.98570036261534   -4.79941924281134    5.34186304634401
C         7.89728539614438   -5.26323267825794    4.52659078866486
H         7.74150990906647   -6.33072913194177    4.57296510515014
C         9.08665343900318   -4.75721562529271    4.03972821147056
H         9.85372852842378   -5.43856424721273    3.70587655817169
C         9.30538222018371   -3.38796487898355    3.96211837335030
C         5.99023668070149   -2.10418406349427    5.38625390888579
H         6.38282696117323   -1.08145530893429    5.39165312695222
C         4.78428066091872   -2.15261553773253    4.44508904839921
H         4.00853834083778   -1.47653860613705    4.79874771579144
H         4.37254743176516   -3.15830307684072    4.40122061272525
H         5.07222903220641   -1.85211394636807    3.43949243632660
C         5.58133843283903   -2.44729668145273    6.81944059655978
H         4.83978735182708   -1.73354897048446    7.17214523476211
H         6.44916131525155   -2.39573541726404    7.47226290758287
H         5.15350659161941   -3.44425059999148    6.88270455554247
C        10.60703878609556   -2.86939478694944    3.38298191374472
H        10.70844084216541   -1.79453574501367    3.63983574546164
C        11.82344758723574   -3.58984527157420    3.96931398957111
H        12.73399562502797   -3.07357387618026    3.67388182003256
H        11.88435674544972   -4.61762320157165    3.61982026243233
H        11.77457069869779   -3.58798291389089    5.05700622127276
C        10.58466679743214   -3.00001680872399    1.85606000145128
H        11.53986835629670   -2.69207375395817    1.43590244429866
H         9.80003560914756   -2.37938324934593    1.42754958050291
H        10.40260335812459   -4.03424939225887    1.57042089401733
C        10.81023035276074    2.41296607831505    4.90801532395172
C        11.59430331561422    2.25070726734466    3.75820551948811
C        12.61680398999841    3.16117191467000    3.52056059369733
H        13.22129314506267    3.05908945781025    2.63203467885612
C        12.87860634724580    4.19116216400939    4.40023210307720
H        13.67778981501099    4.88795060849087    4.19601630989678
C        12.13006826149821    4.31617527097622    5.55582813740960
H        12.36197419878483    5.10655611961897    6.25110547923757
C        11.09003560767732    3.44158419398287    5.82321507373872
C        11.40068169209205    1.09214523344560    2.80577508810798
H        10.59481294795403    0.44930316253917    3.20021109839164
C        10.99702073881856    1.54149969909787    1.39860065980759
H        10.00115186942720    1.98038191482869    1.39208027449379
H        10.98053499274530    0.68275730404826    0.73068793193082
H        11.70349579345742    2.26921332231444    1.00566331846932
C        12.68517548279149    0.25933370504536    2.74103740471682
H        12.96504650277647   -0.07795879957323    3.73645087568457
H        13.50437730299928    0.84355395635246    2.32975850564888
H        12.53364470844685   -0.60916961894505    2.10422758592788
C        10.27572740690965    3.52653161577202    7.09253773465221
H         9.23351592800555    3.29275032753988    6.82970304818959
C        10.27800412018753    4.90720778838137    7.74316649508823
H         9.55118845997661    4.92937331059615    8.55276850910073
H        10.00778839236802    5.67253983443092    7.01814334571913
H        11.25212557392715    5.14420799968130    8.16349729675804
C        10.78539856783868    2.46920048896808    8.08255042996798
H        10.18481539575243    2.47367867953991    8.99114817234126
H        11.81904249775428    2.68152785316368    8.34940462202767
H        10.75340191075372    1.46029305137822    7.64120277927834
C         7.79596389319625    0.92220115350117    3.10951874466331
C         7.89463190787227   -0.49465832998163    3.18918525445058
C         7.37636605294774   -1.22140248757763    2.09166997458049
H         7.40015914968402   -2.30092435423398    2.13285054675251
C         6.85418765677328   -0.58500583626826    0.99282471784126
H         6.47571149238006   -1.17592472645934    0.17087605498466
C         6.80085549234619    0.80494791104133    0.91945919592367
H         6.39050710241283    1.29278565762945    0.04935197053886
C         7.25937336318579    1.54691508463169    1.98670925210810
H         7.19246881795752    2.62718330828889    1.97034799364153
C         8.11040628696720    3.64196871751162    4.25355247162172
C         8.94522997846021    4.22131255805502    3.30340201253934
H         9.58100529259305    3.59574301792446    2.69627034378857
C         8.96696747306523    5.59480848843127    3.14488028312613
H         9.62118914377885    6.03824708455034    2.40948885925799
C         8.15977400919498    6.39692801372427    3.93427187998534
H         8.17959136204379    7.46953954529774    3.81256459632712
C         7.32773172064691    5.82304105536156    4.88172223319032
H         6.69687512150605    6.44702414738240    5.49739969867524
C         7.30503220646126    4.45001160005708    5.04820343794730
H         6.66065264970448    4.00539571086279    5.79356306442297
C         6.97828139646154    1.47709241324475    5.80544829656222
C         5.65524052503782    1.46192321094026    5.36656127753576
H         5.44402039947342    1.62592359131153    4.31779189208260
C         4.63217203884850    1.23214637646501    6.26680194251308
H         3.60689628356142    1.22621293806853    5.92719761450009
C         4.92577083234101    1.00310075542130    7.60301960904664
H         4.12633055256630    0.81516597702142    8.30430710431827
C         6.23978349135862    1.01621466624457    8.04168748187226
H         6.46895184849895    0.82942990839255    9.07930081773926
C         7.26908737994906    1.26462313785997    7.14874775183043
H         8.29601001945027    1.29953131768899    7.50210313879861

