93
CSD_code = PIXGUZ | q = 0 | S = 0 | Stoichiometry = C41H48N2PSc | MND = 4
Sc        7.93497515918645    5.10840718152199   12.46706032300184
P         5.63662389066756    4.11371089736790   10.69617742329943
N         6.85436740059641    3.38431492210955   11.44563336820088
N         7.64284042406798    6.27783701921415   10.63740628800606
C        10.05073117469862    4.41530062672177   12.78574665141410
H        10.41324692271553    3.67504690298363   12.05373174717221
H        10.23387273336289    3.96585247816002   13.77302663451767
H        10.75312382839883    5.26304098293854   12.73180135218209
C         7.07066326298582    5.78403345017186   14.44722675433010
H         7.81453213110665    6.29148290098354   15.08027127926968
H         6.70306901064248    4.95174854217615   15.07082475200617
H         6.22494149758339    6.48837479453389   14.38688156237015
C         5.87337911905037    5.29128144510607    9.35516197982682
C         6.87872872047150    6.28205450385920    9.53274325797477
C         6.99223365707058    7.24338601961372    8.49350537783416
H         7.72781819426161    8.02846218406746    8.59679956432738
C         6.19936395047739    7.19073200725853    7.37606200689100
H         6.31874917565875    7.94251215584609    6.60812390242608
C         5.25143966875510    6.18197300858848    7.20737350274109
H         4.64636116217642    6.14099163320127    6.31516352431551
C         5.09649102123556    5.24108961704814    8.20137918514973
H         4.36527627121156    4.45147094528699    8.09179467923575
C         7.75327527839591    2.52675444918261   10.79369150205588
C         8.42549562328425    1.54867713681303   11.55445984855273
C         9.32966599847071    0.71870454129180   10.91115387567267
H         9.84979288737089   -0.03956744020075   11.47510899993962
C         9.58531995789313    0.82999083018780    9.55357856079591
H        10.29957778166782    0.17088286442194    9.08313372497982
C         8.91013328204010    1.77713049350742    8.80590933858293
H         9.08417326488573    1.86593648519897    7.74341905820888
C         7.99934591992400    2.61171799095452    9.42261247235365
H         7.44998080748868    3.34828038138237    8.84543205721010
C         8.08785230891551    1.39105606834951   13.02109793043909
H         7.88930359483246    2.39900676998806   13.42987070551070
C         9.20835549627505    0.76437663999176   13.84780181055089
H         9.33337979338452   -0.28979803567517   13.60991175773706
H         8.96823066542777    0.84163364148755   14.90608060904942
H        10.14750597394309    1.28200406247814   13.67068515441717
C         6.80570402266229    0.56002878683891   13.14890581658727
H         5.98962756862620    1.03194838948512   12.60526902404682
H         6.51763916146043    0.46243667687181   14.19359185202012
H         6.96115032226674   -0.43602925780283   12.73747100608811
C         8.68636502990516    7.24737272363187   10.67390977323351
C         9.91989397220492    6.98220941798845   10.04656737561850
C        10.88848056552570    7.97508729819724   10.03658386142702
H        11.83105214202746    7.79685062351165    9.54242369690923
C        10.66421163916839    9.19984833045867   10.63778089106998
H        11.42542590423365    9.96555447563082   10.60482768940316
C         9.46674262828189    9.44208965096496   11.28314714973141
H         9.30271675290700   10.40014973701604   11.75272540953003
C         8.46927969393931    8.47859066718630   11.31652677179969
C        10.18150492981224    5.64307746949647    9.38744596018604
H         9.48981546260947    4.90751784970624    9.83163889465987
C        11.60888362607464    5.14317593639573    9.62448363549782
H        12.32308452110550    5.68792060964305    9.01077477721552
H        11.67274033675234    4.08971239448521    9.35844496974876
H        11.89142606659233    5.25389778279568   10.66765720420181
C         9.91891951621986    5.70773804724570    7.87949865955379
H         8.88261943943146    5.96028132487153    7.67069024694540
H        10.13726564801887    4.74348086134673    7.42483108553044
H        10.55581013795237    6.46126373218399    7.41894866850687
C         7.14683415348767    8.75784391000206   11.99931008577577
H         6.63318499723947    7.79335098791510   12.14916235986913
C         7.33257046170694    9.39579122189515   13.37667424065677
H         8.03298383918172    8.81148230249847   13.96989627367215
H         6.37894986340553    9.42756885580540   13.90028590097288
H         7.70574999308453   10.41376819641790   13.29595231535638
C         6.26586737032247    9.64313420636993   11.11284723269494
H         6.75944595105543   10.59324506300062   10.91768576739309
H         5.31476906168514    9.84239715015764   11.60335589155862
H         6.06998852810237    9.15739174323573   10.15909873775787
C         4.37134765710628    2.92011569529354   10.15235289719789
C         4.71448396189517    1.59997989589113    9.89070494216035
H         5.74573640514126    1.28830488226612    9.97426334335580
C         3.73642013765501    0.69133741710767    9.52450296178282
H         4.00691930304484   -0.33444743492252    9.32149127386418
C         2.41633969155525    1.09600654985683    9.41996783304132
H         1.65474388423121    0.38585962210601    9.13397792967133
C         2.06985167997316    2.41195285654272    9.68536195228300
H         1.03981785272627    2.72676711246802    9.60665226959284
C         3.04195870963057    3.32236119635343   10.05414828082854
H         2.77936323575623    4.35053794281569   10.26405974454452
C         4.77380489487283    4.99602718229653   12.03158785507429
C         4.45139793914776    4.27995573385661   13.18327756305755
H         4.79512089891873    3.25803102893090   13.28144594892675
C         3.69380165278875    4.87369161320593   14.17567487153939
H         3.44272011086807    4.32032869336832   15.06855128192922
C         3.25396371390488    6.18038086614217   14.02361524962313
H         2.66621387106790    6.64443894135938   14.80187028212179
C         3.55917736307100    6.88930052115590   12.87331097304356
H         3.20718452612235    7.90368952306808   12.75345428761248
C         4.30596330117394    6.29628462420001   11.86892477654077
H         4.52254889173917    6.83512727305269   10.95524773445681

