99
CSD_code = PIXGUB | q = 0 | S = 0 | Stoichiometry = C44H51FeN3 | MND = 8
Fe        1.46155612969914   11.99846075188150   10.39934582571065
N         2.98367263330333   12.30435960300610   11.50629825103739
N         0.90628647490999   10.88307367907073   11.82673214371876
N        -1.14763221370663   14.08302188336681    9.94375129335375
C         3.79533895173478   11.47970598919231   13.80748900192746
C         5.02282516517347   11.95053551365140   14.21204145210968
H         5.59631008591276   12.63332587158477   13.60213495320146
C         5.53202216360208   11.51939311510166   15.45127310861149
H         6.49698175707919   11.89562997328736   15.76158270186571
C         4.85940423863294   10.64892966910251   16.27362325417103
H         5.29096268582503   10.34643114271551   17.21701449973953
C         3.59672632700220   10.13866962348901   15.88891545850334
C         2.77574795836507    9.23207135344383   16.60098082500044
H         3.10310896415935    8.85800020823269   17.56044653382357
C         1.57330492866639    8.82946224288528   16.07316617816938
H         0.96114644717475    8.13499110670545   16.63171000541798
C         1.09469482275311    9.27735964733230   14.82798565607770
H         0.14431880767513    8.92334253545489   14.45625870292041
C         1.86538211753143   10.16035032201933   14.10744881786233
C         3.10683489010594   10.57581404279696   14.66090096467570
C         2.92779710623750   11.64753364697019   12.65459909882552
C         1.76766600329594   10.85098962264271   12.83330425702643
C         4.11470087891509   13.04621310418416   11.16713628321023
C         4.17579965987666   14.41107482183202   11.47773200479183
C         5.32284604775400   15.11656831282628   11.15068960175308
H         5.40275878173224   16.16278240762036   11.40336834039459
C         6.37728791601896   14.49365491048934   10.50732798857104
H         7.27089311697396   15.05317816513256   10.27153540042170
C         6.28332255909810   13.16008856968651   10.15097479907486
H         7.10466467685996   12.69311965109238    9.62922678886744
C         5.15365280207422   12.42093889127863   10.46230833095091
C         2.99568620183174   15.06057187677605   12.16034868652247
H         2.12263464412912   14.42516870365433   11.95280742637376
C         3.20531026731047   15.10455773499367   13.67607141148068
H         3.30537240577921   14.10003706236834   14.07780452636221
H         2.35812909139788   15.58666025312916   14.15977933778422
H         4.10678257999761   15.66447362671604   13.91748764591748
C         2.72218529876100   16.46798898078730   11.62848382454753
H         3.48702778594710   17.16590570666403   11.95981940663940
H         1.76335792065003   16.82794221773358   11.99672986920002
H         2.70291897671674   16.47450485226929   10.54082005712070
C         5.00633388840297   10.97177568502118   10.06439546657385
H         3.93322534342694   10.73740289648695   10.09629099024354
C         5.72692887542033   10.06194260691070   11.06194463639177
H         6.78747552219285   10.30368376608666   11.09935966468956
H         5.61889838364890    9.02045509765611   10.76661622150334
H         5.31101943139796   10.18175333590314   12.05869210857526
C         5.51457947132105   10.70987068597949    8.64619952714017
H         5.11816425808880   11.44799696457886    7.95256403480878
H         5.20252195004123    9.72027626910076    8.31835119019584
H         6.60042927193430   10.74738863016414    8.60353127494653
C        -0.21621017552800   10.05650462578282   11.82827808946111
C        -0.11340100510271    8.75841203490248   11.30691502038447
C        -1.23085562418639    7.93970487720895   11.34584891314526
H        -1.17019672000500    6.92872484130253   10.97299112660357
C        -2.42795366438868    8.39961811524849   11.86460644376102
H        -3.28589073208899    7.74393841561978   11.90287684006070
C        -2.53504113789968    9.70277558156274   12.31759683264045
H        -3.48297408173571   10.05280228490144   12.69603024746710
C        -1.44099616504807   10.55270363075232   12.29546460302496
C         1.19722540485997    8.29855023204195   10.71222506880184
H         1.75795376621181    9.20237968758225   10.43462058356183
C         2.02102067118564    7.51808406188954   11.73963597692483
H         2.26642798011367    8.14340505368645   12.59296820028866
H         2.94863223914634    7.17061597199525   11.28957573946286
H         1.46291295309278    6.65381856893969   12.09490583220063
C         0.99694018051304    7.44562879993423    9.45798022994724
H         0.65629721975928    6.44545961970988    9.71515783785184
H         1.93875449185065    7.34985200700762    8.92173016370845
H         0.26297138248503    7.89396231817508    8.79218669846620
C        -1.51486571874988   11.98953962427691   12.75347458556572
H        -0.74166014668072   12.53855358142099   12.19960203906148
C        -2.87032210589581   12.62785062675839   12.45666784689748
H        -3.16876572479827   12.43276461472099   11.43053091445384
H        -2.80790157243452   13.70357511436939   12.60164103512215
H        -3.63941493007613   12.24527170220010   13.12395462834227
C        -1.20385276747438   12.09766661424877   14.24882984293074
H        -1.90864676257476   11.50232487280862   14.82654881848927
H        -1.27888333576831   13.13358609156409   14.57310800119949
H        -0.19935482772173   11.74317795366209   14.46083620167328
C        -0.10495801679795   13.31068332133687    9.42678910783671
C         1.18924431498509   13.80870296000496    9.18395837586431
H         1.41840567186320   14.84838919339581    9.35190544284808
C         2.19246303418617   12.97270325888791    8.65280137371943
H         3.16154141093040   13.39805789670821    8.43411191945099
C         1.91655124014824   11.63948694463900    8.29527176142814
H         2.66106444688153   11.03836211251554    7.79876812819306
C         0.65098780983215   11.11982314275741    8.58155236485640
H         0.40489230997610   10.10208895646276    8.32315547601704
C        -0.32574072390612   11.92962662010028    9.18784851284215
H        -1.29709696628785   11.50821796515843    9.40099644440359
C        -0.80212408139778   15.33304023647947   10.57355871263878
H         0.03000068146031   15.16593702329430   11.25409296852189
H        -1.66186331186891   15.67523519905668   11.15031445201455
H        -0.53504645456207   16.12502056160296    9.85922175593223
C        -2.36665245822758   14.15149273212861    9.16863760276993
H        -2.29776806287242   14.89769847524346    8.36297268071568
H        -3.19361424491983   14.42997926359738    9.82283215914782
H        -2.58380014264068   13.18537528163115    8.72132257052848

