102
CSD_code = PIXHAG | q = 0 | S = 0 | Stoichiometry = C44H54N2PSc | MND = 4
Sc        7.01728273262649    3.81598146200957    4.28742110060599
P         9.11016219269416    2.60527554429861    2.33963770120176
N         7.23596648614516    1.62565830177734    4.45816085968167
N         8.98974106474745    3.95377045609927    3.19987711586480
C         6.14654869573746    1.13130262320388    5.23594008111316
C         4.95699693023683    4.16790820581768    3.41293933933364
H         4.79865528323723    5.17514865719332    2.99346951390348
H         4.19130018108850    4.07296673354050    4.20045682828426
H         4.63986626070104    3.47149791936720    2.62218901390362
C         5.08407112876773    0.46517656733100    4.59588103362902
C         7.41650158921297    5.55745340939224    5.69852476841964
H         8.35685795354697    6.09449146694708    5.49059408996439
H         7.44503376121915    5.32208962740506    6.77297323319821
H         6.63306268990050    6.32575062612507    5.60982013242492
C         4.05202796965136   -0.06068782955968    5.35716238683365
H         3.24497537115353   -0.58692378379598    4.87085560566410
C         4.04625003814594    0.06291802714389    6.73284699644673
H         3.24332954653228   -0.36515261371423    7.31478721787918
C         5.07536863060497    0.73684933633493    7.35977940462903
H         5.06579731842760    0.82645980847749    8.43521010337501
C         6.12641475334219    1.28157658717109    6.63485668063897
C         5.07019716069840    0.30461409233568    3.09296949252029
H         5.78515604067335    1.02466276000064    2.67641813465625
C         3.69621598867729    0.60774257740385    2.49175702570448
H         3.78252629869270    0.70687623399631    1.41094925210012
H         3.29996407781861    1.53631029703198    2.89524029068958
H         2.98768209846139   -0.19027755450154    2.70050251499424
C         5.51405322000695   -1.10731545360655    2.70083431831589
H         5.48440714669356   -1.22377936984570    1.61932876327934
H         4.85328955778373   -1.84814444312440    3.14709981119108
H         6.52813976032507   -1.30086041402573    3.04324571098969
C         7.25227667912761    1.98048944012628    7.36806251434654
H         7.80998489231211    2.59607981881357    6.63777732679649
C         6.73521614059318    2.92341604286607    8.45740582082403
H         7.54994596195904    3.54341186526596    8.82680638103214
H         6.33004075466775    2.37009229095336    9.30106621445625
H         5.95762149417653    3.57290595238605    8.05894096007297
C         8.20950579978494    0.94783480451807    7.97263056597721
H         8.97706694426290    1.44083267571424    8.56648386698959
H         8.69497916824650    0.36837760640295    7.19065567112751
H         7.66371527734790    0.26398965525930    8.62023909838237
C        10.15590659402225    4.72672686597442    3.45569574572723
C        10.94384871345436    4.50962006411652    4.59730680559592
C        12.07234923233601    5.29397560864802    4.79386405216069
H        12.69470082426778    5.12215011559204    5.65935327053824
C        12.41832789398246    6.28932864067943    3.90269641671416
H        13.29858993639675    6.89108866076814    4.07431632775933
C        11.62673701819314    6.51675870123454    2.79345222210666
H        11.89398720218353    7.30572898136752    2.10858966478833
C        10.50449424393007    5.74208686131121    2.54845544723527
C        10.59497039152716    3.45212579237231    5.62057098749920
H         9.61119665294447    3.03085316291470    5.35708314766456
C        11.61451207443980    2.30966251647328    5.62767958421477
H        11.36278308428604    1.59338554502070    6.40740379579931
H        12.61750739430906    2.68777192369300    5.81671548994706
H        11.61628562909837    1.77673605607355    4.67908864327263
C        10.49379624422021    4.06245793612296    7.02147516858554
H        10.13855353229792    3.31538472120961    7.72736981154631
H         9.80294131679243    4.90123781601982    7.02156460580937
H        11.46415112391947    4.41369285197376    7.36449920825977
C         9.62558172047965    6.00005908787712    1.34907925927188
H         9.19805590932288    5.03682325642341    1.04235474274507
C        10.37412802738982    6.56413936560042    0.14377062027428
H         9.72739703738841    6.54104658213968   -0.73132983033105
H        11.25978286014379    5.96852369249786   -0.06854494967081
H        10.67342405502610    7.59611631711997    0.30934937660053
C         8.47922303735996    6.93059758504570    1.76051753391710
H         7.80324582584595    7.09779369090725    0.92358530872453
H         8.87760596326102    7.89133395256012    2.08043576701853
H         7.91579992355908    6.49894976429795    2.59285612036174
C         9.23269590185959    1.04726455270317    3.23766128220061
C         8.20724207808526    0.73537951747077    4.17530111212100
C         8.27962866379102   -0.55362144466781    4.76531418490852
H         7.49894423788928   -0.84867352247408    5.45213056338471
C         9.30359822741473   -1.42130167385096    4.48485204081047
H         9.32272664514744   -2.39004041476720    4.96502443060994
C        10.31421946302816   -1.07982382832453    3.58811344653834
H        11.11495473269385   -1.77024497141975    3.37277517924311
C        10.25915922306100    0.14669916525485    2.96359692618554
H        11.01167051985920    0.41561376100892    2.23321731353338
C        10.51612587539330    2.70235146602450    1.18531016250645
C        11.78917059119992    2.88583041052410    1.71751656341373
H        11.93095264571670    2.86499566834777    2.78752715469799
C        12.87087438732648    3.09678140238085    0.88251917047453
H        13.85351783687204    3.24208989261745    1.30587888609330
C        12.69135747179761    3.12701635536126   -0.49038109022909
H        13.53493590619556    3.29485726864474   -1.14334403781372
C        11.42663087476503    2.94398023582405   -1.02505205470229
H        11.28338744051438    2.96724744311743   -2.09539292940703
C        10.34051329483608    2.73891244781207   -0.19327663478589
H         9.35589669122969    2.60572916515206   -0.61851822611769
C         7.65854489099004    2.42642360079564    1.25588047671801
C         7.44255853708075    1.17900400952458    0.67392630212632
H         8.08052318146176    0.34963017414870    0.94961957988223
C         6.42051664034196    1.00712108621111   -0.24147358943315
H         6.25866510047004    0.03989463139026   -0.69431025347944
C         5.60803748071086    2.07829995577255   -0.58051346250301
H         4.80896574756480    1.94377653315755   -1.29472367372182
C         5.82459826709859    3.32226535692089   -0.01071266071156
H         5.19547865204856    4.15748348498326   -0.28096473275463
C         6.85110582760435    3.50252921660387    0.90326522350387
H         7.03622446360116    4.48240292725268    1.32888206115099

