100
CSD_code = PIXHIQ | q = 0 | S = 0 | Stoichiometry = C47H50FeN2 | MND = 8
Fe        3.80955303644936    3.08270520836113    5.35910807608788
N         4.22777742753566    3.88528217476372    3.72745811609749
N         4.74966971154700    1.59090638421219    4.63696336437650
C         4.96047799792491    3.13505017495189    2.92698884280501
C         5.25010755376161    1.83428640106697    3.44136493411315
C         6.16422213141781    1.16935320485433    2.53083060928229
C         6.38096329984185    2.09680572630976    1.47672475581725
C         5.68176485853958    3.31667366894801    1.68273921980811
C         6.83586438895164   -0.03140266972415    2.49261290136845
H         6.73177539030582   -0.76309232035614    3.28023579308440
C         7.67942987079178   -0.29263154912208    1.39800546095099
H         8.19710545686529   -1.24129607338214    1.37140386109727
C         7.87344654619838    0.60205329320879    0.37320204155520
H         8.53457601867254    0.35741396622012   -0.44562286843717
C         7.22258597920775    1.85793039405081    0.39196775897714
C         7.34668549531930    2.91115161395569   -0.54450339292928
H         7.98113596086055    2.78214983210201   -1.40948872722516
C         6.67905125108166    4.09561749576710   -0.34568294331347
H         6.79800558012468    4.89241903205213   -1.06656858706883
C         5.84692546654971    4.32820104766876    0.76407839002953
H         5.36499195009009    5.28729995762183    0.88550471032390
C         3.98775789229425    5.23213511218982    3.45225112581800
C         4.80127330148789    6.19012011533531    4.07645716362958
C         4.57593006039594    7.52869637024731    3.80257178612799
H         5.19844301643455    8.28425958934640    4.25540483618494
C         3.55829081345605    7.91386311657641    2.94665684875226
H         3.40317701319128    8.96119241649481    2.73223888056677
C         2.72881369027643    6.96391988551262    2.38054168226877
H         1.92424791617099    7.27975882447768    1.73381959144238
C         2.91895886375493    5.61368598545326    2.63387160691120
C         5.89789723916440    5.72159069073948    5.00491576780642
H         5.56234308288072    4.76575653021292    5.44880719865958
C         6.17953364175657    6.69676105229121    6.14493237753678
H         6.68728189006229    7.58776994933578    5.78317851865065
H         6.82169824500271    6.22078620622839    6.88283848309907
H         5.25670968876575    6.98959089545922    6.63645270273179
C         7.18183825727060    5.46344385300551    4.21083427719505
H         7.02824748195394    4.69283274163975    3.46061428079148
H         7.97845460471666    5.14137903006747    4.87742896588081
H         7.49912683810864    6.37462656272198    3.70700878951103
C         1.98917783985066    4.56451349801401    2.07187871065890
H         2.20946620804030    3.62194063282885    2.58667174113754
C         2.22216281058651    4.36368409658704    0.57299294230210
H         2.07461428480634    5.29807932533331    0.03529933438190
H         1.52478259047735    3.62640910787582    0.18071094567823
H         3.23386924500990    4.01297204699668    0.38562462808420
C         0.52562672513997    4.92588052194565    2.33678744232280
H         0.37696713582366    5.18506654374392    3.38262053886950
H        -0.11660394760767    4.08210007775566    2.09236723697051
H         0.21438772876377    5.77118806506896    1.72819656339133
C         5.02003284116262    0.39077212070730    5.29473203709146
C         6.00026059007730    0.38476816317284    6.29813190107515
C         6.29770451975180   -0.81166470897585    6.92912311430276
H         7.06423856976552   -0.84588942374374    7.68741691429035
C         5.62570402823098   -1.97406547659142    6.59283181488842
H         5.87943591481637   -2.90354639096260    7.08130282279240
C         4.61668245537817   -1.94360073437711    5.64829741916117
H         4.08125226811682   -2.85155329031472    5.41576754334260
C         4.28737035987252   -0.76500068353662    4.99601063185358
C         6.69792070856479    1.68033414064161    6.63931330094329
H         5.97762787128650    2.49478861984864    6.44607575135315
C         7.90925006742092    1.88629956742338    5.72569495414868
H         8.60682417032406    1.05776028875638    5.83386006334428
H         8.42390078971431    2.80822218855845    5.98688510292871
H         7.60399058933425    1.94451789950253    4.68450511624183
C         7.12644515034197    1.75764222558854    8.10295856811969
H         6.32375893374800    1.42644590736707    8.75577198675108
H         7.37674502284131    2.78431470997280    8.36053717633604
H         8.00265429740690    1.14021616626297    8.28778855452111
C         3.14645205469110   -0.70605724536386    4.00705031629760
H         2.91793027235297    0.35238368814351    3.83232338237900
C         3.53192225730913   -1.34543150115300    2.67114861162098
H         4.35323559861731   -0.80592775154618    2.20737998967165
H         2.68288027030663   -1.33061294731772    1.99084004905222
H         3.83773095714237   -2.37927219576313    2.81872325453702
C         1.89300714865287   -1.38591896361658    4.56559873366173
H         2.00320855323847   -2.46747313507459    4.56714826447961
H         1.02979893578172   -1.13797665040890    3.95127065330789
H         1.69796413482820   -1.06422821658953    5.58643149346247
C         1.75154974788559    3.33341470891665    5.62316085239785
H         1.00442646566865    3.32342903424535    4.84313001469986
C         2.15723944170620    2.14132737583899    6.24083263250941
H         1.73300709656869    1.19419612234776    5.94348448343590
C         3.13641807622355    2.19650177168087    7.24072422221064
H         3.47320439534802    1.27453029626748    7.69748782547614
C         3.44546801635425    3.42638602412395    7.91235565404240
C         3.02071621481866    4.63467288552966    7.29580656831338
C         2.33178146889847    4.53873503245155    6.04426579511004
H         2.04030659650076    5.46338954939760    5.56313630956291
C         4.15423864492511    3.48818769034244    9.11588137572232
H         4.45763277257256    2.56540148836108    9.58969030455124
C         4.45900968467234    4.69823354940806    9.70870619078315
C         4.02652770515339    5.87989093410175    9.09892192814748
H         4.25276693641449    6.82651347382056    9.56885144787488
C         3.31551199608433    5.85157075047891    7.92023648261515
H         2.96956354061273    6.76975671136966    7.46570602874486
C         5.22623354368308    4.76228397616962   10.99482349435487
H         4.59763615127859    5.15930688906325   11.79194951726571
H         6.08702948510261    5.42209656995001   10.89277013424402
H         5.57541315837290    3.77594898843525   11.28996193178040

