62
CSD_code = PIXKEM | q = 0 | S = 0 | Stoichiometry = C28H30N2OW | MND = 9
W         5.91884782402728    7.83842401707211    5.16632971099813
O         6.34426618728272    6.56408841869931    3.79385684311371
N         7.52918536274655    7.10449647534782    4.25129742144237
N         5.86550157626465    9.53896138991686    4.61949857140163
C         5.19281168126769    8.07595070059758    7.36067549599937
C         6.61468107595327    8.28404468993467    7.35659198899180
C         7.23080711298974    7.05057585917291    6.98430004161242
C         6.20152526891251    6.08481108480352    6.76379260036815
C         4.94901733994024    6.69641348339239    7.01798196005007
C         4.16888108846732    8.98050041412580    7.99792368766702
C         7.31530391607303    9.51867425361826    7.86334868374481
C         8.69413166438541    6.71318155772310    7.03050610532307
C         6.46443580403721    4.63923455399437    6.44773375327891
C         3.62840481995365    6.00026317603311    7.19395453049893
C         3.91964128170434    7.47494761929291    4.44841088979920
C         3.51464950595270    6.23934302692070    3.92905480560448
C         2.20327119264284    5.97884784715091    3.56373694244027
C         1.23611048656784    6.95795886482180    3.70922500415322
C         1.59952709311691    8.19746133900422    4.20644620435366
C         2.91488643053017    8.44610312788435    4.56803743819949
C         8.06476315583979    8.01889734554196    3.35144504648360
C         9.13652529846997    8.82229136003702    3.76539826898950
C         9.72468282819488    9.70294662213085    2.88184657197312
C         9.27699543932695    9.79224229135085    1.57185663430888
C         8.22164149450826    8.99713780404477    1.15346928988624
C         7.61188770440189    8.11862863281985    2.02790523715321
C         5.76689725952193   10.83958528319489    4.30193264912121
C         5.22455849896387   11.76132593126665    5.22042092904017
C         5.13000542524867   13.10021279775529    4.90852176460585
C         5.56774410220449   13.56817295087254    3.67928744354222
C         6.09514764523666   12.67446018858729    2.75826365115762
C         6.19401440258979   11.33302471421269    3.05405151279789
H         3.23676842929364    8.98321262770084    7.43350823195827
H         4.53756054921639   10.00164386343387    8.06477289328472
H         3.94893681038336    8.63412864662986    9.01033457765500
H         6.80081209971830   10.42289952251992    7.53986512302724
H         7.34735985921052    9.51178572341851    8.95533898012209
H         8.33698994060214    9.56901919404654    7.49225825625888
H         9.01744893375445    6.26576727062545    6.08978248687981
H         8.88005263462403    5.99577580243144    7.83235747684683
H         9.29851564623978    7.59708433540488    7.21989723693754
H         5.53460523243325    4.09912461729856    6.28355088984999
H         6.99832476377210    4.16150893050747    7.27150431826399
H         7.07876452623395    4.54996301786265    5.54969219907839
H         3.51890611504342    5.68805465555903    8.23530799544423
H         2.79782811782235    6.65893834707870    6.94747810714369
H         3.55432196340397    5.11679030040691    6.56371571357107
H         4.25745953747202    5.45696235419020    3.79080697893616
H         1.93462251665807    5.01031649296621    3.16446491845424
H         0.21129907723951    6.76050797212273    3.42933576456950
H         0.85576636121266    8.97568263052236    4.31111075141733
H         3.16872972245379    9.43690577488134    4.93653853847625
H         9.49277193171239    8.74037596465272    4.78389655859473
H        10.54477403330398   10.32457190419735    3.21250406843600
H         9.74852862109681   10.47707598039998    0.88314492094409
H         7.86810353219035    9.06364463271655    0.13394511114225
H         6.78800675810545    7.49021825522706    1.70943521407350
H         4.87355994035246   11.39029336759361    6.17541919416813
H         4.71017228895398   13.78888791847185    5.62907941819026
H         5.49390853809995   14.61846225965192    3.43998255810215
H         6.43192411734710   13.03223351064284    1.79560210582625
H         6.59852743470505   10.63025630552025    2.34156773423955

