89
CSD_code = PIXLEQ | q = 0 | S = 0 | Stoichiometry = C39H44N4NiSi | MND = 4
Ni        5.62034559208531    6.14922320991341    3.72029764322166
Si        5.56428393236867    9.37377264683155    4.53272988913609
N         7.64855489347429    6.11819040283360    1.66506891986586
N         8.74268506163681    6.57343452014265    3.44264636689554
N         4.84237139308884    3.06622393630769    3.99397738325939
N         5.50820503982497    4.12094552451011    5.73016122608513
C         4.89310847343468    7.97920072745629    3.45388998433703
C         3.90692755477470    7.08826220568577    3.89199104625805
C         7.49465969655352    6.29743427724942    2.99732648417587
C         5.23614637615507    4.29023662919510    4.41401407815660
C         9.64820299170834    6.55446701829272    2.41369451934500
H        10.69086931977306    6.74769223579135    2.56380875821073
C         8.95447407358817    6.26850555342817    1.28812752526294
H         9.27792451306109    6.16280306777414    0.27269968349568
C         4.86326457950367    2.16252640366343    5.02540638674297
H         4.57623603299630    1.13915343285689    4.89400540958122
C         5.28784688780986    2.83059209188093    6.12288842720781
H         5.44558553654155    2.49965267717432    7.12913517836241
C         4.30064922110303   10.81074623706232    4.47290457791346
H         4.09492972451355   11.11707150203565    3.45175754263208
H         4.67226709706643   11.67970633642020    5.00751963548923
H         3.35596944685578   10.52446393011662    4.92481386320362
C         7.21812903650618   10.05006111449774    3.84104967500458
H         7.91793679613856    9.25727337169786    3.59957142556009
H         7.69899152961052   10.71354429563194    4.55337728130839
H         7.04439604589276   10.61730649854588    2.93196030658156
C         5.79608282875931    8.94735916283550    6.38749647367185
H         4.95634062033350    8.37474536188535    6.76944951652925
H         5.86100955199640    9.85773733838547    6.97669006161743
H         6.69789684195282    8.37325396948866    6.57985416520520
C         6.56041131721328    5.74427347348670    0.80250039984428
H         6.46435294867028    6.45827153406793   -0.02195548807568
H         5.65401949573428    5.80959694065874    1.44011805566942
C         6.71217557514931    4.34414861557966    0.27182885617324
C         6.33155090646323    4.02959398994301   -1.02561917839992
H         5.93331098377258    4.80169869291117   -1.66876910937219
C         6.45623663318928    2.73505919632604   -1.49862632767525
H         6.15606496283380    2.50193775144440   -2.50966075266568
C         6.96983761072161    1.74264703616671   -0.68171116521593
H         7.07258806597726    0.73389542085626   -1.05375690156044
C         7.35107460728160    2.04921717200790    0.61407213469565
H         7.75202335935111    1.27883497087742    1.25714182658417
C         7.21974813261442    3.34070201346624    1.08919736583036
H         7.50111082180436    3.57593229380093    2.10537586242323
C         9.08841841569845    6.77058828960341    4.82465197698824
H         8.18157348325136    7.11687500364119    5.33372939037711
H         9.85400671236237    7.54816027958928    4.90416879616408
C         9.57270017410874    5.49289126696340    5.46832901964668
C         8.89020891659327    4.30426441961388    5.23993400016318
H         8.02051887965631    4.31354805595527    4.59764384665378
C         9.30864280564789    3.12924709827975    5.83563663955700
H         8.76611792759117    2.21252473204132    5.65437561448195
C        10.41744342147355    3.12920291190399    6.66605579411620
H        10.74618165540460    2.21231216466100    7.13267956092016
C        11.10348589789066    4.30912837575535    6.89581190746947
H        11.96976037164497    4.31424398962924    7.54105123462651
C        10.68441497322001    5.48577511875393    6.29800533266772
H        11.22381807252194    6.40443688009428    6.48192753164915
C         4.32577118096781    2.77589431897598    2.68169382836404
H         4.83392822420578    1.90185562855656    2.26215880589094
H         4.54656382655159    3.64529994739928    2.05375040360465
C         2.83561697980377    2.54820767012176    2.73627109557887
C         2.02594524457705    3.49983321278925    3.34439778506678
H         2.47903893555908    4.39396916660309    3.74783694588808
C         0.65995262338603    3.30670545845239    3.42498507207447
H         0.03732569648065    4.05119768309700    3.89910315362451
C         0.08928473762436    2.16072859112225    2.89520750589489
H        -0.97824027522027    2.00861402248553    2.95712372683043
C         0.89014485180473    1.21156339098100    2.28471270769465
H         0.44899981373192    0.31726887994093    1.86915467327757
C         2.25956280415433    1.40278201372095    2.20877563802810
H         2.88330237500072    0.65907094902147    1.73228423472604
C         5.90940703236694    5.21346135781319    6.57498690940941
H         6.00480347651563    6.08055138333440    5.88546590972046
H         6.88705858939825    5.00737446135433    7.02509108269467
C         4.89805835616550    5.53311291770733    7.64013212777816
C         3.53811407779237    5.40110172694223    7.38710882029343
H         3.20616581862489    5.04554887958546    6.42275775886900
C         2.61009537007307    5.72948795793243    8.35798852638817
H         1.55530080025626    5.62356392636236    8.14986654551948
C         3.02964635405837    6.19800146945731    9.59158698837631
H         2.30451890360046    6.45703003061274   10.34893310524869
C         4.38291716261251    6.33510076446313    9.84962593273296
H         4.71637816274352    6.70148665755935   10.80959170003505
C         5.31166141658728    6.00187182052582    8.88009447405024
H         6.36791445305704    6.11091902932059    9.08363127582031
H         4.91138017288649    8.19544854793682    2.38059939935507
H         3.15681344323334    6.72902238911156    3.18498545829628
H         3.54628157434084    7.15393237891981    4.91784875096293

