69
CSD_code = PIXMIV | q = 0 | S = 0 | Stoichiometry = C29H30CoN3O6 | MND = 6
C        14.76623414572062    1.86852510048956   13.04913322869036
H        14.07666606649985    2.12769973300973   13.86326116968982
H        15.63977858538777    1.37042563726431   13.48828174750958
C        13.18507765436650    1.72890411643397   11.10995577919182
H        12.42504837223170    1.07611682144079   10.66078880158098
H        12.66837532232862    2.51618292908309   11.67304317757876
C        15.13931053778230    0.16656623555687   11.24788992744366
H        15.53250015697328   -0.67545703170975   11.83258342391274
H        14.68513243414437   -0.23604776600773   10.33380193657074
C        14.06575718916848    0.90584097662149   12.07046594493033
C        13.20968532042215   -0.09716488782495   12.84169599524641
H        13.80479307554260   -0.60340058647940   13.59821781375919
H        12.80053005069873   -0.84659452213224   12.16818245121742
H        12.38334839370300    0.40821236735397   13.33613677244702
C        15.65237180813239    2.93968504102818    7.73681143104556
C        16.28261887415052    3.27261777497397    6.49156405035097
C        15.52070399495399    3.48064513364614    5.36158626577039
H        16.04116850437928    3.74399019442230    4.45382064059431
C        14.13028552966320    3.35934820611591    5.37079803334189
H        13.57366116650888    3.53074433965149    4.46296760752055
C        13.49587912783395    3.02065276818707    6.53196584717959
H        12.42058901278412    2.91776122653703    6.56362858873041
C        14.22961221211701    2.81493517503807    7.71818674424590
C        18.54075551876451    3.34616217834026    7.36947433869064
H        18.31889152952848    4.08268119699542    8.14338753897398
H        19.51324040916685    3.56838966287443    6.92869721580958
H        18.56539854742493    2.35352177391674    7.82498668124132
C        13.53204544118444    2.40340093803724    8.88130427732889
H        12.49470614262765    2.09663002246316    8.71994684595640
C        18.55690420385691    2.82307326310864   10.81497259257622
C        18.60161595128615    1.39805168525311   10.72959470782607
C        19.82392557615603    0.71652594049571   10.55767042453537
H        19.81146578269590   -0.36233231504698   10.49687904368918
C        20.99727345947815    1.40759423886224   10.45349006900406
H        21.93422750219215    0.89338015316838   10.30827037510545
C        20.98080714700663    2.80053957882630   10.54144699577041
H        21.89779097565512    3.36407151113008   10.46475846521336
C        19.81370221025950    3.51008269558776   10.72798627127988
C        18.88565579259042    5.74284685745856   10.89233361104279
H        18.20704276965604    5.62761446772021   10.04591509340001
H        19.32067205477219    6.74275692654828   10.87249103215319
H        18.32031484679809    5.60995263389035   11.81733936990319
C        17.41943867585050    0.63409210371400   10.89524377311311
H        17.57372167677502   -0.43557680239381   11.06309613146859
C        15.40980340745036    5.64483320443943   10.98848115519369
C        15.53920860228896    6.99044523348470   10.50746350767929
C        15.62133643837849    8.04060866456140   11.39685199730364
H        15.73535901191114    9.03167844582067   10.98562606827146
C        15.56037709916243    7.85059260876557   12.77823236305613
H        15.62877803952962    8.70164040408540   13.43734427791803
C        15.40984786488822    6.58677806644711   13.27369975674500
H        15.35559907114583    6.41449249835300   14.33913985755689
C        15.33954700005294    5.47827134498573   12.40533235113742
C        15.64183870357193    6.40406298469854    8.15794238920862
H        16.48620340987225    5.72222764473802    8.26875794487383
H        15.76332854393178    6.98345270486263    7.24204612124680
H        14.72190956145315    5.81814710087645    8.09895539876654
C        15.11754889940446    4.19488102486760   12.96439379635535
H        14.82992406818406    4.18786072577354   14.01954635084745
N        15.18801542177247    3.06176808140380   12.35132329218794
N        14.00351215390737    2.32720246329846   10.07996886982051
N        16.20712287863363    1.07598064024203   10.89909648565068
O        17.46606053186200    3.47178061125284   11.01482408005840
O        15.30939451771135    4.66046671669463   10.16887547261344
O        16.35410132635892    2.71584689769256    8.78956746234319
O        17.62778349190640    3.41619021887532    6.29731425726634
O        19.98434690152948    4.86334404851841   10.81091623029404
O        15.59620138391421    7.36015669635316    9.19304310971178
Co       15.73832792195831    2.86624327526030   10.56460517126486

