58
CSD_code = PIXROE | q = 0 | S = 0 | Stoichiometry = C29H22ClNP2PdS2 | MND = 4
Pd        0.02160638598925    6.25268323770912   17.34969240327434
Cl        0.31504867204093    4.04535348362833   17.88336848266811
S         1.14160011984572    6.05022815662232   15.20464445044394
S        -0.84933330790143    6.84268390846781   19.54127119539161
P        -0.67921781584412    6.65636668613574   14.70947027889809
P         0.31170062598679    8.40129112185682   19.15942771094420
N        -1.23266933817509   10.57725906033586   15.96282707314744
C        -0.92469140505723    8.27323940819487   15.50590532593600
C        -0.42502864200290    8.08027058686106   16.79384443005043
C        -0.34161241553801    9.17753286837862   17.65165967721226
C        -0.75169516064530   10.41725588546490   17.18789082656508
C        -1.32278473132596    9.54986055255373   15.13257602933467
C        -1.90943347211066    5.47813323084471   15.37775744820791
C        -2.66033982452250    5.75088041301961   16.52824711927059
C        -3.33912473430708    4.71313063720268   17.14650629089485
C        -3.27262815108776    3.42662350203394   16.62920959939470
C        -2.55257754626918    3.16965251985598   15.47507329215392
C        -1.86073601765144    4.19284050147702   14.85030655981771
C        -0.93660873850344    6.76365434490364   12.92564266283070
C        -2.21879236665910    7.02455225426774   12.45487660691826
C        -2.43054281542971    7.13999472802936   11.09430996158648
C        -1.36805293368817    6.99542047076761   10.21412696876864
C        -0.09213327590452    6.73520746659294   10.68839097409482
C         0.12929916625606    6.62020980856733   12.04933290962778
C         0.43720358137686    9.55277866164456   20.54913170943450
C        -0.33732818103555    9.34446971345438   21.68249345610003
C        -0.26177242730256   10.24144814557170   22.73272464256677
C         0.58117054328945   11.33797565323641   22.64774137981355
C         1.35408650325346   11.54230637811567   21.51457916842302
C         1.28557431610353   10.65103954300339   20.46054610843752
C         1.98270904028886    7.88413739064607   18.59411076048933
C         2.40211885136519    6.57643827692718   18.87743176675067
C         3.54596868389119    6.08303933032846   18.27098957685127
C         4.27158411433938    6.88372583837379   17.39974160036025
C         3.87267833364045    8.18586219085436   17.14755673519281
C         2.72417312130214    8.69002609894035   17.73458888640483
H        -0.69933450090136   11.31297588363178   17.79486783031107
H        -1.72408716735320    9.76929878867313   14.15070047874733
H        -2.75526346594697    6.77045707700865   16.90824131216701
H        -3.90602348463726    4.90900003633322   18.04481503283657
H        -3.77660205774505    2.61947706850736   17.13870305328401
H        -2.49965345504613    2.16726183472538   15.07813575991337
H        -1.25388955190955    4.00280930458203   13.97272537782319
H        -3.03436611882647    7.12808172913657   13.15905290143961
H        -3.42221100340778    7.34119512400102   10.71721517892531
H        -1.53771592841867    7.08510842827137    9.15147174912342
H         0.72971828241159    6.62152650299113    9.99748224153411
H         1.11382651893350    6.41393504136592   12.44772295377724
H        -0.98531933899742    8.47974280366373   21.72633693660313
H        -0.86009778442759   10.08508776105319   23.61764194450131
H         0.63838657801549   12.03732209036415   23.46840809265072
H         2.01075169500699   12.39751369695102   21.45438006148860
H         1.88707398819438   10.79770064150218   19.57466591643592
H         1.84304992728762    5.95761804304530   19.57887050345041
H         3.85367700653825    5.06692587751375   18.46675313592054
H         5.14732317582163    6.48657272829069   16.90909304799298
H         4.43947936502481    8.80622711803054   16.46900200494543
H         2.38775856236392    9.69229036550140   17.50062041786870

