58
CSD_code = PIXRUK | q = 0 | S = 0 | Stoichiometry = C29H22BrNP2PdS2 | MND = 4
Pd        2.34640862765834    6.39376363710713    9.12556197141001
Br        2.64255022939688    4.05758208626349    9.68019451708411
S         3.45354999653919    6.20375235744089    6.98124760439576
S         1.47191655134663    7.00202149518805   11.30565489289820
P         1.63915822485655    6.80529444480506    6.46896706344007
P         2.62819565617550    8.56184469376811   10.93019026937761
N         1.10275864268404   10.72635678145087    7.71904171934319
C         1.39466916441460    8.41801655719233    7.27059667853946
C         1.88808129976946    8.22670121482304    8.56038357046281
C         1.97870223436190    9.32497721256037    9.41518369382829
C         1.58156277453855   10.56674772309785    8.94450676582075
C         1.00587047649717    9.69654914978057    6.89303216789439
C         1.39534992916749    6.92410738510229    4.68482882687233
C         2.45790893553746    6.74431469626132    3.81135850258845
C         2.24428832525369    6.86822692741181    2.45000453010304
C         0.97977029874913    7.17401228578699    1.97273199282947
C        -0.07945763120403    7.35481226735426    2.85015529289172
C         0.12416639321260    7.22963895939617    4.21090490105141
C         0.40252977070158    5.63034036236133    7.12759657907618
C         0.44983728067526    4.34484645180178    6.59939074326376
C        -0.25208655250430    3.32464293549083    7.21764346306699
C        -0.98302727236552    3.58478816891479    8.36441321994917
C        -1.04787828664755    4.87116742414532    8.88199048710595
C        -0.35621016095514    5.90550217171960    8.27192895715117
C         4.30011331527658    8.04121639405165   10.37396036689061
C         5.03567779169085    8.82959666867080    9.49307426370328
C         6.18266878953194    8.31494368761432    8.91296017117978
C         6.58549118597406    7.01905945975295    9.19138461927048
C         5.86665641506681    6.23631308431556   10.08368988343365
C         4.72525250893890    6.74221978971321   10.68486785223412
C         2.74764769291442    9.72315524413403   12.31072819485107
C         3.57149640390986   10.83775507606867   12.19748265234573
C         3.64285516886406   11.73745686217646   13.24380164134190
C         2.89780314632095   11.52433886126076   14.39397688808103
C         2.07990714816582   10.41125555969757   14.50355286912910
C         2.00111458271909    9.50579678312284   13.46081288561382
H         1.64383761169938   11.46400174845546    9.54830950390722
H         0.60812795927634    9.91425042719312    5.90932681071941
H         3.43492285404226    6.50381261418143    4.20934683274086
H         3.06368508552981    6.72614272457466    1.76155480450569
H         0.81639267220049    7.27106415866916    0.90983823387841
H        -1.06236378684196    7.59170945266471    2.47091132427868
H        -0.68989772690218    7.35997494341203    4.91243480769814
H         1.06431333235895    4.15197309532672    5.72780308333628
H        -0.19785759759192    2.32206828481686    6.82267988319005
H        -1.49431157465597    2.77994426405458    8.86921052977822
H        -1.62157417581022    5.06934159599394    9.77537585772730
H        -0.44818936745929    6.92469342794625    8.65284621476652
H         4.69604262895381    9.82592189204896    9.23878348873931
H         6.74492781078298    8.92154873337083    8.21847804238939
H         7.45907190041046    6.61268506183377    8.70474874825375
H         6.17508570951629    5.22423717932519   10.29895699364177
H         4.17431741443781    6.14204073192835   11.40840319908682
H         4.15170239791150   10.99044239993638   11.29826957472033
H         4.28001675098932   12.60570074455470   13.16441026264183
H         2.95736612636957   12.23012126147606   15.20888132399193
H         1.50361376069711   10.24820503666192   15.40171735556745
H         1.37107115687279    8.62900536177684   13.52581242591413

