116
CSD_code = PIXRUM | q = 0 | S = 0 | Stoichiometry = C58H48ClIrN4P4 | MND = 6
Ir        2.20289288831219    0.14973676706565   14.78961759190743
Cl       -4.19333236239525   -3.09008508615425   13.07220828256569
P         1.91562326755850    1.08095940029601   16.87898649270102
P         2.23889674033539    3.43862582846961   15.32840020472916
P         2.91600687159259   -0.74059524046468   12.76753415771490
P         4.52758298880726   -0.35066776588510   15.05709232562041
N         0.34229841481074    0.58477399005388   13.89558000080481
N         0.38417421868551    1.62848772851284   13.10618339214260
N         1.34685579421080    2.39904758786772   13.10191623713449
C         2.41661026712800    2.15023503464081   14.05022786402416
H         3.35894544752177    2.41239087284920   13.53309787657454
C         2.65837681091533    2.69775426849378   16.85415055097733
H         2.41347251014832    3.29879776311882   17.73607327325061
C         4.52439155167344   -1.34212457767363   13.46976924172261
H         5.39465195711800   -1.21529773864260   12.82190045898175
H         4.39625236643290   -2.40134720631503   13.71719228171091
C        -0.74642782069414   -0.25524698892735   13.71856661831105
C        -1.13997590122051   -1.13745055844814   14.72875138906580
H        -0.60439719046453   -1.14587721553824   15.66541745908778
C        -2.19483363008137   -2.00454434389882   14.53229689820159
H        -2.48430520990181   -2.69008366434694   15.31292373165233
C        -2.87932564535393   -1.98971570991281   13.32768070413731
C        -2.52553274606075   -1.10290006779648   12.32325873173443
H        -3.07072114378421   -1.09448895540865   11.39205030086948
C        -1.46651668483482   -0.24223008930998   12.51805208548451
H        -1.17596576532370    0.45389395442003   11.74620464720548
C         0.29073184382679    1.18162503721526   17.71014240655879
C        -0.84039522499321    1.42654432859344   16.93738765139151
H        -0.74859364506029    1.46236905534765   15.86102026465519
C        -2.06779272920957    1.62691955002995   17.53875377397008
H        -2.94096152434532    1.80581130176155   16.92851358697509
C        -2.17344376779220    1.60018371081963   18.92023954322682
H        -3.13224081792703    1.75462026558390   19.39325578164003
C        -1.04638987200622    1.38077031218885   19.69575384366299
H        -1.12553825404662    1.37022230790477   20.77355501048357
C         0.18382056036454    1.17566078409606   19.09754648701718
H         1.06301748792193    1.00773453165977   19.70478481222082
C         2.89832341613942    0.17798362202846   18.11349715949741
C         4.10265369433313    0.68545751109988   18.58094464547068
H         4.44207990403003    1.64914967493382   18.22599397238519
C         4.84920614827027   -0.03437498099021   19.49694206157333
H         5.77874841356106    0.37046616160286   19.87165613541064
C         4.40899104497133   -1.27275261557178   19.93034332699791
H         4.99581783516957   -1.83560007966050   20.64166911039822
C         3.21856255333884   -1.79390926111261   19.44734799377408
H         2.88069670339453   -2.76533250256935   19.77667966169335
C         2.46268563428863   -1.07192822313170   18.54523767121759
H         1.53281411672997   -1.46902442492357   18.16257996852664
C         0.62847231619757    4.29847511632699   15.19230556204487
C        -0.12391075727768    4.43869609714843   16.35270792501937
H         0.24382151540454    4.02951598041257   17.28437374883117
C        -1.34486829891627    5.08622031055702   16.31857206202813
H        -1.92602693848085    5.18311386355639   17.22413160197782
C        -1.81911380347737    5.60008171039576   15.12369722307394
H        -2.77581453896614    6.10079811888031   15.09263819183087
C        -1.06612761294122    5.47162951808725   13.96747210334276
H        -1.43638578363253    5.87315743844530   13.03542890493202
C         0.15778295449120    4.82935080130889   13.99547994116744
H         0.73150591657677    4.71309139380309   13.09010397288099
C         3.39244866276423    4.80046986174100   14.98532990085186
C         4.07256733682404    5.42340543786109   16.02389570378357
H         3.91920465158210    5.08605105377203   17.03867256261836
C         4.94830092603621    6.45954202630052   15.75208320017450
H         5.47701838093504    6.94449417638275   16.56026601071864
C         5.14908861469897    6.87380722516893   14.44514884602979
H         5.83459950954457    7.68183632407746   14.23487353771434
C         4.47567114880709    6.24915094395837   13.40701498831670
H         4.63828725615206    6.56918269100650   12.38788797010039
C         3.59757455416957    5.21547467795957   13.67388185313116
H         3.07752065699485    4.71467591149605   12.86847869178205
C         2.29062237789790   -2.15740800073214   11.81424168402342
C         1.12193423229703   -2.79930137548740   12.20303419410835
H         0.58820118159590   -2.45847096591263   13.07773112705831
C         0.65487815222622   -3.87785695456255   11.47152420639397
H        -0.25744191092495   -4.37035014818971   11.77179201784755
C         1.35541828953928   -4.31923800193192   10.36209797230953
H         0.99037978741038   -5.16037865357147    9.79146686922289
C         2.52831720066766   -3.68478573556692    9.97910894512814
H         3.07524530750856   -4.03355466616542    9.11504760491488
C         2.99675638267808   -2.60357929724067   10.69948812258809
H         3.90467386908021   -2.09559938456555   10.39987670851672
C         3.33907708204570    0.42491675991155   11.44527330681111
C         2.37210487566240    0.65740452617282   10.46870809483438
H         1.47105299969545    0.05737580700296   10.46307728860330
C         2.56416912064093    1.64593133557559    9.52435245145469
H         1.81326241975001    1.82091678770705    8.76827887169937
C         3.71281701347059    2.42194711952238    9.55556368994731
H         3.85895172725190    3.20011062475534    8.82095692307867
C         4.66757139910549    2.20736437489184   10.53482432861114
H         5.55839465694366    2.81838707635853   10.57111832120403
C         4.48065316102100    1.21786311663568   11.48360679999968
H         5.22479702309827    1.06972495168143   12.25446326945438
C         5.37740849636306   -1.46081045191122   16.23108733144503
C         4.87352372928382   -2.74150554464347   16.44296630609179
H         3.98200645510484   -3.06659676310796   15.92657849400798
C         5.49365364881549   -3.59161298264472   17.33923277759306
H         5.09601509713794   -4.58338823585181   17.49435341438819
C         6.61400642790757   -3.17349754256788   18.03752270037612
H         7.10069807551642   -3.84153467037113   18.73277208393000
C         7.10067132743963   -1.89095586483124   17.85186333423543
H         7.96483074790715   -1.55350147307762   18.40561989307799
C         6.48094046099401   -1.03236898973193   16.96319526485043
H         6.85906929698014   -0.02795967008130   16.83717668884981
C         5.85968160144728    0.85720816093401   14.73533531693372
C         5.67017884860519    2.19119051173695   15.06991501567002
H         4.74641431265398    2.48868475147291   15.55239852227977
C         6.65507326624621    3.12537923596500   14.79790055923493
H         6.49463939166186    4.16239877190354   15.05344887326984
C         7.83690153128599    2.72896285535583   14.19654951191799
H         8.60326374854055    3.45720306895196   13.97548002928081
C         8.04435272590822    1.39248031003162   13.88765233516376
H         8.97466033897261    1.07942371145154   13.43596078382536
C         7.06412294102128    0.45725138251701   14.15810843933925
H         7.23815748190069   -0.58766588513709   13.93593647140323
N         1.65646300638320   -2.84176780289155   15.66628037107724
C         1.83202250955993   -1.73860091240004   15.38011051463658

