37
CSD_code = PIXSIY | q = 1 | S = 0 | Stoichiometry = C9H21Br3N3Ti(1+) | MND = 6
Ti        2.69453704599405    2.02519676399981    5.53093130961608
Br        4.53965398335177    1.19014419682139    4.21868360492692
Br        1.02987583005833    1.38646387596605    3.90827208531887
Br        2.46763667602733   -0.00216789307927    6.81634804958532
N         1.23601351663749    3.12328256139876    6.81095598846599
N         2.85258333554384    4.09181409604337    4.70791159482933
N         4.05037530325296    2.98910209136999    7.01608457822562
C         1.00862136140771    4.50479646137153    6.32436424261948
C         1.50611570561898    4.67139159349607    4.88572924945893
C         3.87494957754992    4.89144031172079    5.42370199957078
C         4.80724707938956    3.99121871771068    6.23925151693529
C         3.29179172303252    3.62997993474295    8.11651051640806
C         1.84546542840795    3.12824811845749    8.15595363067877
C        -0.06479548897287    2.43135257544429    6.90288247716935
C         3.16571539048482    4.10102264489238    3.26532951612362
C         5.01810433298085    2.03746686484253    7.59654704185531
H         1.50541757336109    5.21928865860760    6.98554584239320
H        -0.05848330022730    4.74883386872318    6.35044021656718
H         1.50445482468867    5.73789418855155    4.61895513334825
H         0.82289618481734    4.15731402984706    4.20166590821177
H         3.38815816591955    5.62421015624847    6.07207101022688
H         4.48164094628407    5.46173883463146    4.71268378927622
H         5.48150701956340    3.45629822363374    5.56235621414371
H         5.42583632012743    4.61120836665365    6.90368174820183
H         3.75888932271929    3.40933631499399    9.08195249786979
H         3.31629203192969    4.71668680292601    8.00259291086755
H         1.26003128070713    3.75418771678010    8.84466822071063
H         1.82507409513147    2.10335671768951    8.54099785577395
H        -0.58897658528875    2.48204195153677    5.94860901941408
H        -0.69030456083978    2.89949757168859    7.67082343601633
H         0.07075771257528    1.38109430088914    7.16581589490475
H         4.18723735411551    3.75997503151392    3.09741757773866
H         3.06423973252354    5.11429490882404    2.86134784921538
H         2.48878772142683    3.44481534352231    2.71591376388165
H         5.53390757232775    1.48067640821716    6.81262652194885
H         4.50744226137597    1.32569793703025    8.24495980064153
H         5.76920352599669    2.57269975229242    8.18771738686021

