66
CSD_code = PIXSIZ | q = 1 | S = 0 | Stoichiometry = C32H27BrNP2PdS2(1+) | MND = 4
Pd        3.11421123318923    4.17989019265214   23.16321972745117
Br        0.73798119474330    4.10490832530973   23.32560762091675
S         3.32984546086120    6.18379864545955   24.50901843381133
S         3.32399013416568    2.03499437344702   22.05664080139992
P         4.07165196469017    6.81766484678334   22.78321252906843
P         4.90130892523890    1.88207155689914   23.25336865124556
N         7.65156577287025    4.80790884370641   22.13905356973250
C         5.47981913283500    5.68320753381387   22.46405597488992
C         5.00887405904153    4.40074677931817   22.81581123081428
C         5.92790803329405    3.33291917001951   22.80470073040217
C         7.23688303551433    3.56043737675483   22.47631659322853
C         6.79380692107721    5.85861738156316   22.12193081160642
C         2.84914950563702    6.55708749096372   21.45250357033889
C         2.91137233595417    5.47825109680284   20.56203642547840
C         1.80394326634604    5.19466726335551   19.77851189077517
C         0.65462774719986    5.96671524751701   19.88343963839647
C         0.60908888760695    7.04707709067578   20.74923145934516
C         1.70360794489437    7.34157989585513   21.54387082014156
C         4.61127130935632    8.53474441763261   22.78528243222032
C         5.02272612241078    9.10380323305148   21.58314225417602
C         5.42770675631464   10.42474880563087   21.56614897401689
C         5.41568872781424   11.16783420027023   22.73836724786447
C         5.00123796375287   10.59650953798690   23.93153190927172
C         4.59660754183814    9.27352299644902   23.96111343077458
C         5.82350691371945    0.34318611809666   23.09598682375714
C         6.42626534926323    0.06094346878250   21.87317996659454
C         7.10486844131896   -1.13164924010771   21.71101512053614
C         7.17299957830079   -2.03634492789381   22.76095892183451
C         6.56295022418357   -1.75495799207334   23.97348559391779
C         5.88190667541331   -0.56325664358753   24.14783088744338
C         4.52191955399152    2.26820236738984   24.99832288932040
C         3.18609739369711    2.38937006045569   25.40179541972520
C         2.90664890077346    2.86719318414874   26.67355585810632
C         3.94337145507961    3.20940431179220   27.53011633416241
C         5.26395667141789    3.04806761531493   27.13869100860479
C         5.56102832601113    2.58406721942139   25.86926668388375
C         9.02327423167146    5.01312941639299   21.69193368576076
C         9.10771800013506    4.88536898634743   20.19390862274675
C         9.55292519635300    5.84053929172959   19.40159086384801
H         7.98615630203832    2.78126891923028   22.47364150182231
H         7.20436950705425    6.81471697871479   21.83042346024261
H         3.82912715283046    4.90062330254491   20.43805568831348
H         1.83525908110119    4.35891563188725   19.09571820827721
H        -0.21194119698108    5.71563478530539   19.29258347230850
H        -0.28655295535796    7.64241786614467   20.82988077952486
H         1.67254117632350    8.15763842717658   22.25614140191836
H         5.00768399228755    8.51184258428286   20.67695949397105
H         5.74438332788174   10.87962669634323   20.64007874510372
H         5.72559800275229   12.20123034473357   22.71839718211319
H         4.98777058464920   11.18277462427890   24.83716311323398
H         4.26063040057025    8.80896779225435   24.87843605436108
H         6.34295139447225    0.77137735882927   21.06045693674132
H         7.57395651365206   -1.36170742235957   20.76667040300017
H         7.69873044033052   -2.96931538744802   22.62920685116327
H         6.61243713067766   -2.46725759775029   24.78239838452467
H         5.39530960557382   -0.33337691815876   25.08558270153200
H         2.37498439196090    2.04909136060811   24.75505265023361
H         1.87898444966918    2.97256371966752   26.98696805313371
H         3.72048595379203    3.59611874527605   28.51239307032692
H         6.06502184208504    3.29787742181894   27.81759070191240
H         6.58802908170673    2.46897651527051   25.54566571572821
H         9.35774615854439    6.00385746462281   22.00655644592078
H         9.66023769982976    4.26143383753635   22.16652670612249
H         8.77260219513569    3.93768948400067   19.79480754989264
H         9.89801655417227    6.78737222100664   19.78347939422974
H         9.61217032513473    5.70657170614537   18.33610992680587

