41
CSD_code = PIXVEX | q = 0 | S = 0 | Stoichiometry = C10H24FeO2P2Se2 | MND = 6
Fe       10.23972124535149    3.76491569018758    3.07570486301202
Se        8.08138422437100    3.21417585235386    2.20735794689059
Se        9.38517905984747    5.87987572941911    3.79171057787655
P        10.79399896564224    4.83688183233124    1.21830505453209
P         9.53303647568968    2.77051698127095    4.92431079935217
C        11.79949821100905    4.12641112807926    3.76098149907797
C        10.89686472590237    2.25624530929584    2.50538336207372
C         8.29850971229085    1.75305540166941    0.90957715745338
C        10.59004566547020    6.59423230238652    5.17169067622820
C        11.92584819570259    6.25065379362385    1.42592506716241
C         9.46183314454740    5.57556226144670    0.23146193838951
C        11.70758211188751    3.84851932178420   -0.01832769533676
C        10.76553991146299    2.64022094094478    6.26779530709254
C         8.09149860606038    3.47459249439034    5.77299289211882
C         9.03876648098217    1.02472523227782    4.74785822486688
O        12.85225420392886    4.29118223786872    4.18549809338434
O        11.40473790511582    1.28642517437030    2.16302362572130
H         8.95650494627122    2.07350591775021    0.10423944833616
H         8.70703427267869    0.87409497959238    1.40275858824362
H         7.30850295956527    1.53281463562118    0.51597362198751
H        10.63929353172271    5.90099091600330    6.00908471735986
H        11.58186861893088    6.75277816535856    4.75469729683205
H        10.16728826836541    7.54227296778826    5.49754639965063
H        11.43732628549508    7.00568354952300    2.04358124986884
H        12.84725278720413    5.92196208262836    1.90809404728525
H        12.15530739441591    6.66867805926018    0.44445599999979
H         8.81893988124971    4.78844317074139   -0.16479615579972
H         8.86602198672497    6.21574344328782    0.88686059437482
H         9.89858316117755    6.15919576576026   -0.58085782332742
H        12.63105146422993    3.47868923461778    0.43007310484299
H        11.10401504350612    2.99744921105315   -0.33398313890555
H        11.94076521197575    4.47049721832551   -0.88381723300813
H        11.62772103863181    2.07602753304358    5.90861523723597
H        11.09585926739118    3.63467467888130    6.56798201120439
H        10.32123238446873    2.13032291876892    7.12386309570961
H         8.33606056601103    4.46878379879884    6.14933554221574
H         7.27938141632580    3.56618447356338    5.04748102508853
H         7.80072551985815    2.81500622247009    6.59259396258852
H         8.18659008640066    0.96636453067770    4.06919143373702
H         9.86819567718296    0.44150499056727    4.34642849267302
H         8.75777938495247    0.63483985221924    5.72744909191013

