98
CSD_code = PIXWOL | q = 0 | S = 0 | Stoichiometry = C39H45BrN8O4Zn | MND = 5
Zn       10.32151299185151   14.35327247896132    2.10992003232881
Br       11.76804237792296   12.60062193584623    1.61241796960337
O        10.87878154679578   18.96720177563017   -2.76452181317760
O         6.35244225908607   16.00795592142387   -3.11347376037042
O        10.88802410140380   18.81451305368696   -5.89397049038457
O         5.35336854807291   17.58416771648675   -6.17566598814821
N         7.41918696435560   12.78893221634755    1.80080868532709
N         9.04541414376669   13.45328994639701    3.40216015365353
N        11.24849477272101   15.15985820562897    3.71297172590103
N        12.47561740949532   16.86640107516515    2.58700686391022
N        10.77971604459104   16.08226231568690    1.14470780159672
N        10.30806829239136   17.17658927220935   -0.89088198830119
N         8.04574157793202   15.63312376002012   -1.09677368550573
N         8.74075211134674   14.47656144970042    0.83734017511242
C         8.09150553675303   12.63909204840269    2.89117675609489
C         7.89798515300692   11.41865151860613    3.76432238782039
C         8.52388003843500   11.90607029956048    5.10103781793572
C         9.42977652258357   13.01541297054870    4.59927677505363
C        10.51117296557513   13.51676554717397    5.30619540192661
H        10.72814632904061   13.06307459784645    6.26014561885624
C        11.38142984488655   14.50145881261348    4.86342197397345
C        12.67364352879429   14.86575705519013    5.56735258563003
C        13.02945870222364   16.20379934966788    4.86388383122267
C        12.22710739695378   16.08358955757978    3.58292154072112
C        11.77672649065089   16.91109945356159    1.43231141136359
C        12.13414692936457   17.93369691241521    0.49348088234334
C        13.18895570488962   18.83255165590354    0.69947493998028
H        13.76508117150360   18.75205744997777    1.60612867148937
C        13.45874880961001   19.77470936943671   -0.25760490720866
H        14.26881860003362   20.47444427994205   -0.11505807726245
C        12.70400738926526   19.85640780452853   -1.43384923988382
H        12.95544582487366   20.61773266556389   -2.15568411879436
C        11.66195243324660   18.98363636806891   -1.67260081805322
C        11.35360200451619   17.99903315283010   -0.68613911834438
C        10.06661644507593   16.27329278480902    0.01238779875553
C         8.88430402548823   15.40980947559800   -0.12809252816683
C         6.92471386094387   14.88730094131984   -1.13441605784766
C         5.99255667348361   15.08990790523326   -2.19524791679088
C         4.82528196559213   14.35433290889326   -2.20330209249588
H         4.09905262547286   14.49131120872500   -2.98914442447142
C         4.55604507664151   13.41642666131473   -1.19955235895938
H         3.63131209141910   12.86092296417375   -1.24690348760126
C         5.44038385414550   13.19370319820446   -0.17737091664291
H         5.25338599191115   12.46804301656170    0.59691135851439
C         6.63489596774335   13.92462908348459   -0.13788838407024
C         7.63201598167862   13.74615119533005    0.87666667373495
C         6.44711527895797   10.95762988621560    3.82975352744437
H         5.78297563577677   11.75817344207200    4.14188703105236
H         6.34846567899602   10.12182876063741    4.51924726601385
H         6.13676515265038   10.63194553926390    2.84098701751946
C         8.74427017700675   10.31743598246130    3.10258647268195
H         8.67180018009225    9.38855290809206    3.66178567680150
H         9.78966753326916   10.60932763895471    3.02684175540442
H         8.37312007064600   10.14540173805600    2.09490457180594
C         7.48144288467008   12.58424053659949    6.00596677676033
H         7.98274589718644   13.06591692428104    6.84370317277713
H         6.78389385707736   11.84923614842903    6.39877048695790
H         6.92778035050799   13.34511815258942    5.45959966747620
C         9.24585741844213   10.82366263257630    5.89811004852880
H        10.14107268564879   10.48354996903701    5.38587407476673
H         8.58262004482249    9.97511360607634    6.05016940047663
H         9.53075557197922   11.20161242792903    6.87749498680054
C        12.56778325189889   14.94579518160723    7.08779974047786
H        11.72199359307945   15.55078711587612    7.40299803527167
H        13.47926176726881   15.37517079989076    7.49738555463599
H        12.45217188068168   13.95031408960637    7.50969997664057
C        13.66008686535285   13.74466526527260    5.19327358801403
H        13.29652095573140   12.79423409180080    5.57794017667520
H        14.63849526464830   13.93996053272331    5.62352546158626
H        13.75460563253723   13.64665355670548    4.11422164842152
C        12.44533456997153   17.41872442410563    5.60307791208973
H        12.55305757377295   18.29941310222218    4.97389621136214
H        12.97382151031442   17.59166813745929    6.53701017728305
H        11.38645744683308   17.27814016210144    5.81216358634954
C        14.51015652736223   16.44954067341422    4.60025520490741
H        14.92892304705961   15.69202955542621    3.94555356523030
H        15.06441759055528   16.46127461431416    5.53645710021469
H        14.62625447019095   17.41304283994555    4.11209627838963
C        11.08691982715269   19.91385001476612   -3.78849744527421
H        12.11865627213873   19.87542598487821   -4.15870306606024
H        10.86898382094784   20.92442407089850   -3.41746998828329
C        10.15445336840146   19.54776906589738   -4.94203219618730
H         9.32944056605258   18.94362026288526   -4.53874956661687
H         9.73789288002214   20.45491795930683   -5.40802488591954
C        10.08392513313382   18.24115762130173   -6.89006679612396
H         9.36882466074623   17.52928183226851   -6.45968612189249
H        10.75485575704538   17.71670849182842   -7.56709396945314
H         9.52950196269468   19.00894590159688   -7.44637260365376
C         5.50171501302701   16.25494360146931   -4.20810546794850
H         4.53795717875894   16.66503359326157   -3.87850445420452
H         5.31596158999095   15.33872247706850   -4.78333697381726
C         6.20449506801816   17.27567663043914   -5.09818498178433
H         6.43354966273676   18.17572810704655   -4.50852164483893
H         7.15365324072106   16.85159728986398   -5.45775057560491
C         5.92002716942194   18.50336231537460   -7.07458694991949
H         6.16385504062610   19.44939361961329   -6.57546218461025
H         5.17385580288271   18.68093448261448   -7.84609871712069
H         6.83236654289134   18.10162290565354   -7.53287522175018

