22
CSD_code = PIXWIC | q = 0 | S = 0 | Stoichiometry = C9H8CrO3S | MND = 8
Cr        2.39483363945628    2.46045202172981    3.93926201657945
S         4.56000015164087    2.30788650176890    5.11423509584408
C         4.38766348023319   -0.26374115452511    3.96965605715089
C         4.18824747091487    1.20247858180438    3.77880055448782
C         4.05289285676031    1.88570597766973    2.58175007463552
C         4.06584334325778    3.29772940459753    2.74265988603400
C         4.21163455403586    3.69193632270609    4.06218954923001
C         4.43581788883864    5.07381412082170    4.57786036853734
C         1.33012390582748    3.62050256945316    4.86253074110136
C         1.02426718802043    2.60650632447263    2.75301158286589
C         1.30924476492704    1.13902875396336    4.57693859145605
O         0.60576544054164    4.34947939272723    5.38976512664843
O         0.10191524961750    2.69065357400974    2.06012140661187
O         0.57202575384059    0.31998270529536    4.92301854393959
H         3.94323557401144   -0.59642284296315    4.90740558602875
H         5.45149591430044   -0.51461798945666    3.99180434380142
H         3.92045780710491   -0.81290802628001    3.15372836380481
H         4.00943351313710    1.39253966841456    1.62064449213996
H         4.03394605678143    3.99466634454301    1.91685598857352
H         5.50266548732576    5.27810879120432    4.70017311667828
H         3.95405712616635    5.20987366692053    5.54600033229651
H         4.02193283325979    5.80204529112267    3.88238818155439

