53
CSD_code = PIXWEZ | q = 0 | S = 0 | Stoichiometry = C25H19Cl2HgN5O | MND = 4
Hg       15.02375033145124    6.85931371494853   10.39994478776485
Cl       14.37387761137554    4.69080574859624   10.39623687225392
Cl       16.68309655995120    8.16517199121875    9.52231716374095
N        13.11543151007772    8.17625400384672    9.89159221648581
N        12.59914469612882   10.19274365689007    9.08813805756250
N        14.59361638787228    9.57954751640958    7.09058445483630
N        14.21033269662263    8.02310401733731   12.41881447524662
N        13.29789809752466   11.64132163167824   12.34055650018426
O        12.17557318760716   12.36199036865453    8.66348921933058
C        13.16397631780957    8.96478717662865    8.87503040604017
C        12.41881118094544    8.85184699939114   10.97371964101829
H        11.39210644091954    8.45909448412556   11.01180645939266
C        12.42235557515827   10.34491443926891   10.52818426379488
H        11.48863821597467   10.86355381922509   10.75295155770206
C        13.91042102384454    8.59640594495347    7.66813452861679
C        13.97346179123427    7.26905632268638    7.24486739620412
H        13.36892418405619    6.50965892977019    7.72231449765149
C        14.80670660885595    6.96902906473911    6.17806804951769
H        14.88924497336019    5.95279879222366    5.82229445527448
C        15.53583793474265    7.98950534777970    5.58950498291975
H        16.20902122816186    7.79221052609021    4.77036227936358
C        15.38604949001733    9.27863433858158    6.08289234585491
H        15.92964201915076   10.11208668190109    5.65951199749801
C        13.04487878681825    8.65523815652958   12.33036119238779
C        12.40165090264725    9.17897876885324   13.44858317986481
H        11.45573967702690    9.68295030408079   13.33746330894550
C        13.00290536027387    9.05534956833756   14.68650059131793
H        12.52882084757167    9.45835717648277   15.56841867308766
C        14.22690929179595    8.40775555610352   14.77112738468703
H        14.73553924086311    8.29225879892832   15.71471156116773
C        14.78562905026394    7.90205137234987   13.61290084769872
H        15.73507215798786    7.38208975056442   13.62940123452025
C        13.57473640589931   11.08864894622337   11.16599861001663
C        14.84152773045740   11.11659723179398   10.59652476857288
H        15.04386099759059   10.65882362754631    9.64095610794459
C        15.85733275999864   11.74835364598488   11.29561339498307
H        16.85544448649192   11.77601050914342   10.88575877504918
C        15.57215646335678   12.32800296655173   12.52128494891841
H        16.33632360572813   12.82833078931180   13.09524424261649
C        14.27194378980022   12.24887306540870   12.99395608636759
H        13.98846919525763   12.68531597051933   13.94295942579529
C        12.35411554886044   11.25176903305394    8.22281854505125
C        12.24411857173038   10.90192366710407    6.78846245045475
C        11.58583131177930    9.74910102447327    6.36788324704002
H        11.14272546205231    9.08005477358979    7.09236939806755
C        11.48249305209833    9.46884187628483    5.01820719980656
H        10.97295618717260    8.57365589561427    4.69399375932475
C        12.03018406539277   10.33300224040475    4.08365249911536
H        11.95588579832247   10.10374290150104    3.03107209697425
C        12.65978864447782   11.49537034784042    4.49819223186424
H        13.07307414101420   12.17546307142148    3.76865157852388
C        12.75635384163911   11.78734451630914    5.84558611020475
H        13.24161456278325   12.68820893076492    6.18752994136256

