29
CSD_code = PIXXOJ | q = 0 | S = 0 | Stoichiometry = C7H16NiP2S3 | MND = 4
Ni       10.66491958554226    0.50277814898082    0.96978427667296
P        12.11882728670529    1.90234603104946    1.79171575283756
P         9.04831323550167    1.59869653475978    1.93354608277352
S        12.13731708480268   -0.70379324509437   -0.13627860912917
S         9.37657785195474   -1.03071186426699    0.05782362371989
S        10.89037327226111   -2.95693185331515   -1.67439534955174
C        10.80848924017545   -1.67683169234121   -0.67103301955737
C        13.12242753512725    1.29404478019676    3.19617757928374
C        13.37672830219421    2.77784863446391    0.79770404099170
C        11.15102529737182    3.29632511137213    2.54915916881659
C         8.12501899294908    2.73635475737253    0.83603394465486
C         7.69638222345973    0.85937719579191    2.91444350785594
C         9.85097189867149    2.75883683743302    3.14107555114424
H        13.71716951226480    2.10437676914066    3.61545999942657
H        13.77784201993091    0.50517017972528    2.83000115133410
H        12.47148094920206    0.87423838823546    3.96076465414895
H        14.07954740362100    2.04016717492365    0.41278387339317
H        13.90254947088154    3.51119790436946    1.40736868343135
H        12.89779388892838    3.27026459536593   -0.04640125525833
H        10.92986079539961    4.00642919275320    1.74745321116792
H        11.75380885175338    3.80813436290244    3.30373414028895
H         7.47897300486855    3.38796774808227    1.42263310653715
H         7.52448938349555    2.13794821945588    0.15264005198293
H         8.82259168344759    3.33172415812420    0.24984416788943
H         7.09993992851567    0.23293465844697    2.25219132892374
H         7.07233537009649    1.63705693899367    3.35267054689856
H         8.11480094821535    0.23118871867437    3.69847562281450
H        10.06299814093182    2.18107033529724    4.04527713823310
H         9.16434684173019    3.56769127910697    3.40424702827575

