96
CSD_code = PIXYIE | q = 0 | S = 0 | Stoichiometry = C42H43NO7P2Pt | MND = 4
Pt        9.90921184050098   13.95735457023547   23.64686230581407
P        11.02694449300853   14.85123286159721   21.88371771100170
P         8.30507595893726   13.57431928094095   25.19444895191639
O        11.47060483607383   12.62279913568587   24.50018527468783
O        10.45926265190019   11.45188163715832   23.02850969702914
O        11.99921651387941   10.57617514797793   24.22849162575791
O         7.75849700591670   13.73113940703093   19.80443808905368
O         9.08658406766510   13.51699738985644   17.97386635683472
O         8.13970502199608   17.56067226514826   25.68641499122423
O         8.18278442397532   17.50596609756117   27.94153856140637
N        11.31389386660803   11.51686804496763   23.91470971067809
C         8.50057792571653   15.22480089008361   22.94694412235803
C         7.48424623893114   15.68764780274685   23.78361177956825
C         6.53128756451958   16.57235204085314   23.29682911762069
C         6.59122932263745   17.00512764161144   21.98451423010319
C         7.59113107482129   16.54550225973984   21.14514271563945
C         8.53805578135307   15.65004187186814   21.61704998735181
C         9.58837762085215   15.03926368881407   20.72483157472463
C         9.08638846422326   13.64674403018882   20.27987475402206
C         7.49322732560267   15.24695753094994   25.22705603929088
C         8.40476472084087   16.21170879062343   26.01196359149499
C         7.73729876513941   13.55132684500381   18.39361711847729
C         9.85334115374556   13.08802773904478   19.07262617463596
C         7.04364124152625   14.73488650749865   17.71953852992557
C         7.01712050716759   12.23584984591839   18.07144930719216
C         7.69713381413031   18.25063446112049   26.84202310782219
C         8.23691116557921   16.15954493388234   27.54499100527641
C         6.16426700397303   18.33997781245955   26.86421815911903
C         8.32680115303729   19.64029085088853   26.86392153363114
C        12.45920668781836   14.20585260013119   20.96911894857441
C        12.56978553537448   12.82163714307876   20.84394728109589
C        13.66000595876395   12.26884644886169   20.19964018528593
C        14.64834102669132   13.09157559739530   19.68196956452495
C        14.54723407860257   14.46680140651264   19.81456434128084
C        13.46051194515130   15.02768340770846   20.46224563907299
C        11.42817826116178   16.57181776275891   22.29799666374383
C        11.42297364214722   17.62501363926563   21.39093751994684
C        11.68000948288650   18.91161743553982   21.83050035633664
C        11.94068491984024   19.15392856075922   23.16940865810136
C        11.95160404357216   18.10697581431376   24.07683441965134
C        11.69656857105591   16.82080725134897   23.64113443206847
C         8.60119090317782   13.11858437327786   26.92542942281274
C         7.54658024031748   12.84229715353733   27.79148188283298
C         7.80802927749967   12.51882586273162   29.10911994151905
C         9.11695178043837   12.46356724147600   29.56507389702779
C        10.16793518998256   12.72785506070943   28.70290170900086
C         9.91283148833078   13.05763421352366   27.38284395374486
C         7.01615169690738   12.41439112406519   24.66725731623096
C         5.99770954960595   12.78462854950171   23.79384638089661
C         5.09361503915295   11.83647440966636   23.34968000598967
C         5.20551700399956   10.51740102357119   23.75730277048203
C         6.23212163288431   10.14017986639172   24.60820813732937
C         7.13779503475662   11.08173069046797   25.05797058213916
H         9.79906415270445   15.65282747689457   19.84259323965068
H         9.09627974294212   12.96943614202903   21.14809505962220
H        10.85701549169052   13.49717326535050   18.95994088092799
H         9.90496998317071   11.99240593399168   19.11599857946612
H         6.98128910723907   14.56069827251929   16.65008307053701
H         6.04862386617164   14.85090485467581   18.13689722378887
H         7.61553254254198   15.64096546535400   17.89768285080393
H         7.04195023416111   12.05835968443017   17.00032302519158
H         7.50661736171494   11.41199228073338   18.58395804076600
H         5.98854192906462   12.29762051850811   18.41256503929775
H         6.48498731455949   15.22939340308181   25.65590246563840
H         9.44608024326070   16.00251940501383   25.71237135101398
H         7.31235990098738   15.63287822385362   27.82169314934613
H         9.07850821648339   15.69040435736803   28.05512345438501
H         5.84416151804032   18.86344323937730   27.76034890277344
H         5.82478528681482   18.87758771465174   25.98401800454998
H         5.72727407380358   17.34462138691482   26.86224401011177
H         8.01836527768541   20.16589109916920   27.76173295051802
H         9.40807137096598   19.54143519993026   26.85857595567506
H         8.01367242498462   20.18977876651583   25.98226057583078
H         5.74571000581432   16.92611383054746   23.94874608187255
H         5.85269483448362   17.69949392225674   21.61233139735980
H         7.62837560110045   16.87741603876333   20.11802683057216
H        11.79581103605985   12.18653564773897   21.25249287846257
H        13.74367374522985   11.19641403800472   20.11000626846802
H        15.50303163049753   12.66014819065368   19.18264714070374
H        15.32264710769463   15.10644646323415   19.41897314796508
H        13.39387806548919   16.09968404819267   20.58137377815129
H        11.21276879939011   17.44497530357887   20.34613079037605
H        11.67188897242169   19.73062627818049   21.12602677895306
H        12.13246100849955   20.16218586631949   23.50536814907381
H        12.15258960108303   18.29680598837905   25.12056312359870
H        11.69919429708547   15.98380440359563   24.33451383283068
H         6.52933394589724   12.87244784875937   27.42409298614922
H         6.99210370225774   12.30374049684392   29.78343094293946
H         9.31554602342360   12.20549254747950   30.59462974473605
H        11.18636790512450   12.67185019953351   29.05674900671133
H        10.72519907793765   13.25014383768747   26.69330340617929
H         5.92030098124542   13.80651205838776   23.45314687506506
H         4.30303609167813   12.12898993619298   22.67449850095398
H         4.49925491555484    9.78066993175850   23.40409716053054
H         6.33139345668161    9.10968631288612   24.91530065069645
H         7.94737464198981   10.78876210260851   25.71294256445935

