43
CSD_code = PIYBEH | q = 0 | S = 0 | Stoichiometry = C21H12F5N3OPd | MND = 4
Pd        3.63737220004617    6.62005986620570    8.19689280011485
F         0.80045331399911    6.21275778957041    9.95052708957806
F         5.09971346913229    8.00599021170416   10.13558432235064
O         4.82063292784219    4.08173381951911    6.67022808491291
N         4.44384840526399    6.27685791110383    6.33791939746757
N         3.32130764012862    8.40532224039633    7.34994626422526
F         0.30035194703501    7.03695894300921   12.54322408713449
F         4.65536000529200    8.86781482588041   12.76984923615407
N         4.00389795357974    4.87652161384329    8.97751091554473
F         2.23390859974265    8.36233059434675   13.92638896289196
C         4.50521568698974    7.36968347703315    5.55268123318957
C         2.95368332070574    7.12058651099092   10.02605200632695
C         2.69597428847772    9.43691225123657    7.91529779153362
H         2.23828689664788    9.26166599286509    8.88184353230607
C         3.88804795320996    8.56764047247587    6.13381416222441
C         5.07660273528324    7.33776078673732    4.29397302723910
H         5.12346258230417    8.21378320525624    3.67059609387990
C         4.92549496124490    5.05854458648781    5.92093704021950
C         2.61068629883147   10.68390593262028    7.32412687777248
H         2.09195089875168   11.48494732437837    7.82490094738175
C         3.84575024601664    9.80580333205725    5.48857201870008
H         4.31172372377426    9.92516409549023    4.52492721378048
C         1.74415033942031    6.87647603401282   10.65732006070369
C         3.20866071160187   10.87398921064293    6.08602632372847
H         3.17239632719876   11.83527759181553    5.59688156553558
C         3.90932991536409    7.79026610982870   10.77836743271599
C         3.70619383657350    8.22121108191310   12.07905650384830
C         5.60063597564624    6.12160799592152    3.83217125285907
H         6.05179616327931    6.07891908023510    2.85110389299342
C         1.48156434812835    7.28453192207583   11.96012955188669
C         5.52967760271531    5.00993537263569    4.61177560094103
H         5.91219273774374    4.05524354980348    4.28702649255650
C         3.07587745727026    3.92363649334357    8.99568401798856
H         2.11255233957337    4.17500865426602    8.55831449128072
C         2.47010106949971    7.96167592450617   12.66996286879880
C         5.20774089627256    4.62983395641909    9.48676980521498
H         5.93484745083419    5.43840330154329    9.43353795118215
C         3.32687692863788    2.66816660393927    9.51928467854698
H         2.55603237239503    1.91426944035008    9.50605294242891
C         4.58061113870010    2.39797961380934   10.04469974113298
H         4.81050838332346    1.42448056487678   10.45010897740039
C         5.53711003910445    3.40124938862922   10.02948833555290
H         6.52731791254020    3.23139232641932   10.42134440782460

