46
CSD_code = PIYBIL | q = 0 | S = 0 | Stoichiometry = C22H16F3N3OPd | MND = 4
Pd        4.43836408096756    6.27462515369567   20.55136173914881
N         2.81818006560453    6.52803099724555   21.87394544168171
N         3.87441019793510    8.15220382896119   20.09826974874091
C         2.82200873575721    8.63632144728546   20.79696690719698
C         1.13634992919828    8.06715580441355   22.57649378799317
H         0.65682131280144    9.02846677799310   22.50679820795296
C         2.96616190976439   10.73429992026801   19.62651921198104
H         2.61165958056914   11.73766807471086   19.44594087471815
C         2.22231138595157    7.73001214650711   21.78768362794802
C         2.35498140193426    9.93320209775402   20.56906642039097
H         1.51670152443354   10.30806635555623   21.13195934004066
C         2.38721192541990    5.56162930056219   22.74937910606650
C         4.04437966411052   10.22207801708838   18.91858263899703
H         4.55506071724691   10.80895443092656   18.17274350085174
O         2.97689655846479    4.47454160350988   22.78007261260326
C         8.29723628952430    6.53299080560364   18.70122897205451
H         9.28874494495507    6.85040128481532   18.98984590623795
C         5.95611558889419    6.17746945155750   19.24014153425068
C         8.07112799420839    6.07691317601262   17.40792632925756
C         4.37540258685016    3.41917076902066   20.43570688005165
H         3.67307191710901    3.64277549219734   19.63511598859102
C         5.51549471160872    1.88839236227330   21.86458403628266
H         5.72872863589330    0.88397107100597   22.19710016150897
C         4.45977067012841    8.93101195669707   19.18833625287260
H         5.29862210346806    8.50593627105962   18.64987102533857
N         4.94474616228064    4.46064727865242   21.03486972695352
C         7.24673211737704    6.58012053912557   19.60025389540000
H         7.43442517881094    6.94713927147462   20.60757864539033
C         1.25744792646623    5.89618147805276   23.58211825341648
H         0.91543336539724    5.14154621078025   24.27295931558878
C         6.80308882585539    5.66393001296572   17.02146565386141
H         6.63732441343569    5.30918323233702   16.01486584397009
C         6.10907339513893    2.97912776919059   22.48023067603898
H         6.79440284630230    2.84711540949318   23.30245692681889
C         5.79730956284544    4.24981711174417   22.03327563637956
H         6.22516447240729    5.13370451781713   22.50269483795002
C         5.76290639088580    5.71806695195715   17.93353569779672
H         4.77190669330131    5.39931089809557   17.61623718388731
C         0.65911504190899    7.11428471100271   23.48797354134274
H        -0.18816089027919    7.36112994368544   24.11317164064038
C         4.63246932007193    2.11633967329375   20.82101054006014
H         4.14098907042859    1.29670521096337   20.32114613464020
F        10.01076612672156    4.93323931471367   16.67255092497151
F        10.03365894161977    7.07804947845822   16.53565475405555
F         8.84240832609403    5.92621323847183   15.16516808406476
C         9.22107828013583    6.00745915100459   16.45074183401784

