34
CSD_code = PIYBAD | q = 0 | S = 0 | Stoichiometry = C16H8BrF5N2OPd | MND = 4
Pd        4.40848551801154    1.48499366439693   14.54639069693336
Br        3.50328510122436   -0.37787325771059   13.41326674088482
N         4.36681444192148    0.75163284908108   16.55810955009012
C         4.27962966043069    1.78841145919939   17.42234601650320
C         4.48110725912632    2.34657740026464   12.77906561569737
N         4.83325120172570    3.20044649062882   15.56623632972399
C         4.37770721172766    3.13324486825949   16.83343297416127
C         4.07812279204380    4.29342416710622   17.54762006557401
C         4.41406737039212   -0.49648371592511   17.03219105595771
C         4.29575808728226    5.52970074170006   16.96866511690216
C         5.07608355698895    4.39300618996601   15.02561983573986
O         4.56478099027334   -1.51584567606573   16.21526493088576
H         4.49449444905344   -1.25582013538996   15.26493818515505
F         6.50628592912173    1.36558457311772   12.19712517201401
C         4.19523081259474    1.58511534926795   18.79167056247173
F         2.47573157875542    3.31374273880093   13.42246036789421
C         4.20926755139367    0.28530822848170   19.28664728050084
F         2.28649694004781    4.59574300913217   10.91380584745805
C         4.33141461952905   -0.76448940120192   18.41069495620739
C         4.83486779670926    5.58106784549020   15.69140389264794
F         4.27244340873058    4.19192155398810    9.09155587491745
C         3.41324821809822    3.15986945175570   12.44285214318436
C         4.33381722202923    3.58711330417440   10.28426579747308
F         6.39497809141873    2.60094749870831    9.68601683923158
C         5.47442505415912    2.15916309432601   11.83487565448114
C         3.31480411431538    3.79338585604049   11.21441444538465
C         5.42233839791303    2.77031254847949   10.58840123994552
H         4.36883255910048   -1.79187984535384   18.73021969711264
H         4.13878874376812    0.10898220450079   20.34852245868731
H         4.14025723019225    2.41757215088691   19.47153590064102
H         5.48739227324632    4.39774740370911   14.02329320816554
H         5.04912622872889    6.52173743986899   15.21135721683034
H         4.05670483942115    6.43462947439013   17.50505911788103
H         3.65846074763695    4.22881047689266   18.53767521358147

