59
CSD_code = PIYDOQ | q = 0 | S = 0 | Stoichiometry = C23H28BCrNO4Si | MND = 9
Cr        1.46440145223787    3.40184141445087    5.47705480828657
Si        2.30294151853513    6.71919636681630    7.13437941420134
C         4.67437939722971    4.33981257127472    8.89677665739946
O         4.54850448443238    4.12673712778659   10.21406523709489
C         2.81880066734090    5.17277562967003    6.16670874269105
N         3.76133405776070    3.74638202741001    8.17140266590614
C         1.93388678119033    6.40366198589109    8.98162766810153
C         2.95235030769097    4.19228695915146    3.89911233741368
C         2.86332327502248    1.47542065696308    8.69198736387425
C         3.77021822743279    2.80342237096488    5.73207293136372
C         5.75979473200853    5.17478665007702    8.45745174298430
C         3.50673674992313    2.99971444968364    4.36904718629580
C         3.38925040988075    3.33047822285261   10.43649615140497
C         2.86749084863303    2.97626525395581    9.03334684326597
O         0.28542605992279    0.67797841217691    5.25779534868812
C         0.34948276931122    3.36276587772785    6.89383229055495
O        -0.43444277271504    3.30933304709752    7.75757137427878
C         7.49321481717379    6.75468845714129    9.03507073697732
O        -1.21760692979699    4.09270503611169    4.39854891211710
C         0.80243933699050    1.71515235545841    5.30726813539436
C         6.45939585895826    5.92744412311221    9.41572118707239
C        -0.14240639288776    3.85917743591007    4.76494995351468
C         7.19031028928931    6.09160890155732    6.74768151844292
C         2.62078532065031    5.23752577956075    4.77982027728175
C         3.71094711719877    8.01246326760829    7.01278218275799
B         3.46270200536155    3.90384254322331    6.70278567039771
C         6.15010843115014    5.26359574455791    7.11325756133681
C         0.69982528483301    7.40496372067142    6.35425281580766
C         4.23403693781281    0.82639685220787    8.87170131294929
C         1.79199410077179    0.76301620935273    9.51263665988602
C         7.86177691903677    6.84603641463772    7.69965675008368
H         2.82388497274077    6.14276268879636    9.54383931625130
H         1.19574448034244    5.61888277511475    9.11207805413371
H         1.52789694700023    7.30432012354276    9.43177669782019
H         2.83459518527663    4.34236630096988    2.83115160069313
H         2.57106335191321    1.40522692486487    7.63857705081074
H         4.27990493057644    1.87901418039469    5.99089465011329
H         3.79907482738439    2.24336614926294    3.64505743447685
H         2.67192908569408    3.91936708585633   11.01497943853391
H         3.68501468446391    2.45760851810736   11.02136962049856
H         1.84954030854920    3.34536926119312    8.88152043051313
H         8.01653783836242    7.33565290612747    9.77950817819290
H         6.16728325675651    5.85638860374584   10.45154673994906
H         7.48241788532003    6.15283305962518    5.71020215997432
H         2.24723547826519    6.15407357505965    4.33167922121029
H         4.58758430029171    7.70997017930699    7.57768489771141
H         3.38306152069011    8.97067558049818    7.40331652072138
H         4.02410759889241    8.16796768670937    5.98483687953272
H         5.63975420200062    4.67511990342954    6.36901954853219
H        -0.00646497383306    6.60300667388314    6.15309900447672
H         0.89071898500108    7.91857847418095    5.41686048755798
H         0.21282715938430    8.11562555095798    7.01501455342202
H         5.00544608343610    1.39550119246453    8.35649358541118
H         4.21914315686186   -0.17888821633149    8.45886279634913
H         4.50755222961033    0.74841540273546    9.92202343948749
H         0.81673953888370    1.19874819583410    9.31345608317262
H         1.99482854390691    0.83160865135253   10.57938307374105
H         1.75570279474577   -0.28744400683950    9.23820674875181
H         8.66887356509933    7.49850671409369    7.40389935013382

