130
CSD_code = PIYFEK | q = 0 | S = 0 | Stoichiometry = C49H75LaN2O3 | MND = 5
La       14.22621036797253   15.29949785786481   14.55646494005962
O        15.08120962824385   14.36873301969691   16.26301332668982
N        16.13100541273983   15.86282069347780   12.86499585515718
C        15.63591907106481   13.48857469555271   17.08213469111135
O        12.72706239311320   16.92371861148025   14.91701197198020
N        15.51420863079228   17.43283230333015   15.04515578966881
C        16.98764702046083   13.64439647715815   17.51471059596120
O        13.67376937410035   14.00092460096083   12.92056399790623
C        17.55485663377646   12.68395514210284   18.33322856999096
H        18.57960812864092   12.77954258331589   18.65263434914183
C        16.85487979278118   11.57647422519723   18.77797212022139
C        15.52975679255342   11.45552775746589   18.40377091813665
H        14.98648084851753   10.60352418540376   18.77731878625254
C        14.89990499314487   12.37472951136120   17.58155722040933
C        17.81042888025591   14.87620734733033   17.13363416838469
C        19.23191235702659   14.87074284768540   17.71285796649930
H        19.80876786995059   14.02589076232332   17.34395828463499
H        19.21819501145606   14.84781950711251   18.79954502825623
H        19.74147002017027   15.78344294740713   17.40564044561348
C        17.95171185203480   14.97357201219216   15.61025891472852
H        16.96862455035013   15.04383918682601   15.14813778614732
H        18.45798405422342   14.08858595242505   15.22906889504211
H        18.53043532351010   15.85621381467279   15.33672371008471
C        17.10187118999972   16.12041281329788   17.68236059952612
H        17.64051382679389   17.02456936102248   17.39894419701978
H        17.05156304389217   16.06845487657310   18.76824055238558
H        16.09122831975974   16.17336077415823   17.29244270901168
C        13.43226761906302   12.15538726805839   17.20982663405002
C        13.34479050519700   11.87108629152599   15.70805519030801
H        12.31952190136756   11.66527725829396   15.40633636826461
H        13.95241008521301   11.00642517414908   15.44789805286880
H        13.71320584765961   12.73168314924484   15.14427665668403
C        12.59829880668808   13.39450623309278   17.56028878213980
H        12.90251551184728   14.25163232925524   16.95789530491612
H        12.72955512031239   13.64468778419820   18.61159907774261
H        11.54124974061977   13.20225138804122   17.38083298726552
C        12.78915829223285   10.96663399285734   17.93836171900377
H        11.74176647121998   10.89959001673973   17.64835194085712
H        12.83175026296866   11.09309034027008   19.01770518911492
H        13.26529004380763   10.02806772556233   17.66635897652830
C        17.50883623840350   10.56391648824138   19.67327404386553
H        17.54083526277066   10.92846804118879   20.70143086476804
H        18.53257116471427   10.37100127557117   19.35650025366852
H        16.95809618140466    9.62587858649207   19.66483898522583
C        12.60581158770059   18.20660408267152   15.17131307845134
C        12.39683668093981   18.68516795743183   16.50160182759217
C        12.42043706257237   20.04636522941997   16.74782882071361
H        12.29196643169466   20.41787369004182   17.75165488129592
C        12.61710177844590   20.98121617270072   15.74186899808777
C        12.67870637973057   20.52191723637083   14.43384915768931
H        12.75118864479211   21.26271100381517   13.65391260533606
C        12.64559740509543   19.17599390589460   14.11875361466076
C        12.14004825213043   17.71598652394306   17.65343184147844
C        11.01325348934193   16.74724121590224   17.27179811530878
H        11.25924721498328   16.21360353371744   16.35901470301630
H        10.09051740420153   17.30163784709350   17.10969648103638
H        10.85031849995514   16.02391236153219   18.06828084124593
C        13.43198666083725   16.95073209605586   17.95973531114012
H        14.21529276268771   17.64503159021334   18.26201255351445
H        13.77128722005642   16.40648630114733   17.07721367071361
H        13.27496738503940   16.23874533026607   18.76736403060437
C        11.70328563911565   18.41567672273223   18.94809258630108
H        11.45383196759484   17.65904253771908   19.68972434504709
H        10.82140259233358   19.03071215371116   18.78456160046520
H        12.49780478222479   19.03233505985585   19.36275571159294
C        12.66754568614038   22.45212832295705   16.04638142981443
H        13.32767857624290   22.97205711150139   15.35317348962105
H        13.01604924443371   22.62844757536005   17.06269359757786
H        11.67422487277736   22.89361493577358   15.95300823353463
C        12.52639061289066   18.74488980249868   12.65780840983939
C        13.67904767657915   17.82794163336915   12.22724615423245
H        13.60170391503516   17.60707271268661   11.16282832348992
H        13.63621572330670   16.87840082680857   12.77118064129150
H        14.63871162414772   18.31089879763629   12.41467472407422
C        11.19108055275087   18.00328312006399   12.51647794710634
H        10.36838417671606   18.66708828639969   12.77610633843481
H        11.17178788003094   17.14986773828454   13.18710885093528
H        11.05268725517833   17.65850129519110   11.49375232948332
C        12.50710277375640   19.92476033518055   11.67652007725692
H        11.68079435535570   20.59917153466171   11.88568535518325
H        12.37511087479919   19.54285373312222   10.66549835209278
H        13.44112966875692   20.48265634831350   11.70438360818828
C        13.25337346858479   12.76821990352060   12.67076523091340
C        14.17142430013166   11.72415624405153   12.35708771941268
C        13.70995022092024   10.42493693801284   12.23172840351535
H        14.40179835582346    9.62351569535183   12.03020979903699
C        12.37289483705608   10.09747448552819   12.36053548567560
C        11.46811303428382   11.12866383887053   12.54875724326856
H        10.42286812373873   10.86889816438191   12.59031316601064
C        11.86370266678269   12.44684076124472   12.68517129956586
C        15.64916343452273   12.02594846258132   12.11912545530477
C        16.45541775443509   10.80860512390027   11.64590500858263
H        16.04192466945359   10.39190485478775   10.73065033182722
H        16.49110187077481   10.03400294718471   12.40773041127634
H        17.47936450790861   11.11917423532363   11.44134358448245
C        16.30555775307452   12.51875351619675   13.41446379107480
H        16.28346589947708   11.73417989027526   14.16863694718358
H        15.77591574972497   13.38790770890134   13.81213436485240
H        17.34414310316244   12.79537226250052   13.23421620195326
C        15.74837224210349   13.08400557109653   11.01066401522433
H        16.78786847676116   13.36654037360587   10.84575549396701
H        15.17247949495811   13.96610957055202   11.27488651823178
H        15.34817037302873   12.67819416518041   10.08325872412645
C        10.81003334653817   13.54577919579477   12.80087589713109
C        10.88565252299257   14.22187035815067   14.17633359415987
H        10.64803978630925   13.50168740551335   14.95804027157528
H        10.16938899842321   15.04121484134374   14.23325829646807
H        11.89180991572426   14.62510943269624   14.36249602239549
C        11.05162420243197   14.56032918197421   11.67549030934768
H        10.28794984736306   15.33451641370459   11.69216334258877
H        11.01140795001453   14.05378107784563   10.71247617887460
H        12.03005718409429   15.02133707234805   11.78023219148711
C         9.37291526749918   13.03078257239859   12.63883419245903
H         9.10013630004331   12.34421844307024   13.43691807495787
H         9.23841456538198   12.53569488777217   11.68026438044597
H         8.68762345213031   13.87587736211588   12.67995965269601
C        11.90036369781814    8.67758045628308   12.24362498344820
H        11.43503127580461    8.50809296130683   11.27136319071441
H        11.15985954420831    8.45363100882220   13.00996795683074
H        12.73078519740751    7.98293764931591   12.34799836938073
C        16.96966144310653   16.01383798085724   12.10070958933230
C        18.01368866616899   16.19985317389598   11.14481290592962
H        18.29088059378878   17.25247763176395   11.10136217917731
H        17.66666365871461   15.87534556399470   10.16414976242950
H        18.88134344436915   15.60866217869877   11.43613603695609
C        15.58919553934493   18.49437425763187   15.47615911699208
C        15.74250974475580   19.80205389895473   16.01763597632205
H        14.77345061147444   20.31264742230978   15.99905813379025
H        16.46335240083057   20.36708331361598   15.42807457125641
H        16.08961075348310   19.72704567259492   17.04749557327555

