120
CSD_code = PIYGEK | q = 0 | S = 0 | Stoichiometry = C57H52MoN6P4 | MND = 6
Mo        4.53879439927384    3.85998704112231    5.02062082686636
N         6.08388469017305    3.80659069491277    4.00554954069592
N         6.99875648355006    3.74341749270823    3.35447973728367
N         2.97189273836292    3.92824780860692    6.01692958099768
N         2.03504459981695    3.99372236569314    6.62842108794923
N         2.15708414217912    1.95892643634686   -0.02027365624078
C         2.92397525348426    1.26398461569709    0.83002623212592
C         2.88722482344109   -0.14206006274454    0.83547263421349
H         3.48023699318811   -0.72420275498349    1.51898612584315
C         2.05364837070466   -0.79066446269823   -0.04763564365853
H         2.01483552325036   -1.87088235738888   -0.05005228845480
C         1.26632768017663   -0.05642212534294   -0.92728114971711
H         0.60437597334746   -0.53715817355458   -1.62880889731818
C         1.36502850722871    1.31917557448000   -0.86032524604885
H         0.78132672405467    1.96097228129815   -1.50879394032943
N         3.68748674003749    2.00850589483233    1.69026686201771
C         4.76482353621878    1.44741309884110    2.46364886403620
H         5.69176307812476    1.99374758364192    2.23576613273569
H         4.92763694612590    0.39494784817590    2.21804719528003
P         4.41395066802983    1.61484592320030    4.29074460513636
C         2.91534868233696    0.58177879073875    4.31841936330974
C         2.94933210201839   -0.78456923676908    4.04658001953284
H         3.89844619414360   -1.28137399946539    3.88965880053398
C         1.77441799702591   -1.50868727203576    3.99155268014322
H         1.80625200309762   -2.56837132828032    3.78082645785059
C         0.55604755401236   -0.87963131335890    4.19878056581880
H        -0.35972018417630   -1.45047456622072    4.14744709062658
C         0.51666429136484    0.47530371596861    4.47484723750161
H        -0.42725775691691    0.97338381712708    4.64089909288616
C         1.69300259377512    1.20143134507211    4.53776143629573
H         1.66204998729816    2.25875254116271    4.75860668227834
C         5.67899786219347    0.46445055784578    4.92107700802731
C         5.39063817419103   -0.46641340799661    5.91664561182928
H         4.39001786863325   -0.53458350262358    6.32035892555199
C         6.37180780699251   -1.32247358503425    6.38091764886633
H         6.12997410128062   -2.04711954444648    7.14558763377196
C         7.65508984041349   -1.25840282639089    5.86555536452618
H         8.41673563269614   -1.93817413817552    6.21819103483147
C         7.96003800154095   -0.31263642934987    4.90168944185171
H         8.96390718687790   -0.24473133133764    4.50848263612319
C         6.98358360425438    0.54824406726778    4.43746688740258
H         7.24380442471573    1.29082878172163    3.69641837814037
C         3.73016269510994    3.44344560368779    1.52952014094605
H         3.03683229157660    3.72895489127966    0.73022174872227
H         4.74951755776332    3.76009111926756    1.24466208342609
P         3.32791484160487    4.41881485000681    3.05926955199701
C         1.51849861070870    4.36620427832932    3.15483242774899
C         0.70674748883871    3.47318465589548    2.46475192093648
H         1.12961927653133    2.78388069844814    1.75271412680300
C        -0.66021797385874    3.47388872540072    2.68343829309637
H        -1.28386342797721    2.77728950236293    2.14084047255871
C        -1.22828207018748    4.35502674865823    3.58805238356982
H        -2.29564371071115    4.34553279568184    3.75658389675314
C        -0.42440232635968    5.25117189741498    4.27463558774250
H        -0.85710932861281    5.94604720474191    4.97956152741922
C         0.93963267614415    5.25276775610435    4.06124128317693
H         1.57350121705209    5.95285362994745    4.58670686190301
C         3.59829803176031    6.04811283118422    2.28875808304120
C         2.58701451187643    6.80967329886819    1.71426232367961
H         1.56932328584532    6.44596094220351    1.71353651076933
C         2.88217513091134    8.03938531399633    1.15288562661964
H         2.09040436552412    8.63135697469751    0.71610963576300
C         4.18351387651046    8.51379124857256    1.14703227523913
H         4.40671364665216    9.47679172930657    0.71091729786743
C         5.19896945026410    7.75084905565295    1.70120775706522
H         6.21678209846788    8.11459746588944    1.69886862848113
C         4.90479532511236    6.52591860665011    2.27025716788090
H         5.69265829567562    5.93386994972899    2.71506897838940
P         5.69277775610645    3.31785335682797    7.01544965195726
C         6.14878847227003    4.87491998831858    7.90398554520564
H         6.40258221865949    4.69218696083082    8.95212697441546
H         7.03564591295154    5.28346025902232    7.40125213079159
C         4.97798525468790    5.82766210635429    7.75155909351588
H         5.15920554122590    6.79204694885765    8.23967026802164
H         4.07780343354562    5.36611889018847    8.17611182591955
P         4.73168112881971    6.04966335216400    5.93150613231294
C         7.30688801743131    2.48304508658408    7.11482692270137
C         8.34228538015029    3.02632514591080    6.35777282885928
H         8.15055596416053    3.88892351365633    5.73392556123212
C         9.60615689319518    2.47198410187487    6.39775514179898
H        10.40195472124638    2.90091991119615    5.80605243798721
C         9.85164200981441    1.36852905861871    7.19902114929901
H        10.84134103554047    0.93719304606062    7.23819061168400
C         8.82490629716859    0.81725523816234    7.94523404881314
H         9.01181183795626   -0.04585724017580    8.56799064949598
C         7.55477267241773    1.36424730746280    7.90068058538407
H         6.75712527377244    0.91783605731123    8.47693736359663
C         4.72620625657659    2.41358704609161    8.26748151989588
C         4.99595373858213    2.45031029686376    9.63454954643137
H         5.82765700042871    3.02648647932620   10.01559218033292
C         4.21312144240816    1.73193538238210   10.51902933237309
H         4.42979814200140    1.77025422846907   11.57726219276925
C         3.15789437966161    0.96203695060403   10.05596693630008
H         2.54832061488406    0.40593742713756   10.75311789425722
C         2.89306527438436    0.90522915476163    8.69866754502867
H         2.07625494035962    0.30361735696371    8.32609579433876
C         3.67371444082452    1.62682826819155    7.81466938193701
H         3.46901634545124    1.58365065233112    6.75126813673604
C         3.32101610675487    7.19668469678200    5.89213943426312
C         2.26186226335161    7.11378392276719    6.79309898175322
H         2.27934061498444    6.39526758895009    7.59934076484392
C         1.16174876326758    7.94215793200904    6.65147647691215
H         0.34762526047545    7.87063786022431    7.35839037427772
C         1.09881808300711    8.85211917756468    5.61003137012578
H         0.23597432905346    9.49293345240784    5.50138960633278
C         2.14660511618277    8.93776030056306    4.70694802237399
H         2.10582606466974    9.64378488109396    3.89023167696596
C         3.24851397394292    8.11691486903514    4.84623274281388
H         4.06883834527464    8.18737043081890    4.14538985561327
C         6.09715280750143    7.22747250665932    5.65177994325772
C         6.04812523347972    8.51078347931758    6.19338193191309
H         5.17058230812815    8.83030277113750    6.74004073324460
C         7.10820910346892    9.37972108513158    6.02378736078373
H         7.05900081495562   10.37497105294951    6.44214429695962
C         8.23366735902669    8.97853901360826    5.32024505256248
H         9.05989950596732    9.66180044670195    5.18801445523971
C         8.29572861567905    7.70183348367555    4.79101119970136
H         9.17215082359625    7.38133377496979    4.24631800590516
C         7.23231918356657    6.83133303783684    4.95779886498078
H         7.28495125212716    5.83642027126285    4.54296427306040

