57
CSD_code = PIYHOU | q = 0 | S = 0 | Stoichiometry = C24H12ClF15MoN4 | MND = 5
Mo        9.58962151207338    7.99930529810540   15.10417878775770
Cl        7.73764011848087    6.66045129576208   15.43847474226254
F         8.55890351369205    6.83286942364357   12.61972050885643
F         6.43153448992965    5.90071978571461   11.22044639192296
F         4.20175666196507    7.47334064819902   10.89005427108380
F         4.15662777567914    9.96399697790736   12.01955406344860
F         6.19727651789430   10.85604580930260   13.49156816243209
F        12.11624746680746    7.37305661453270   18.85542531759792
F        10.85235021850055    6.68113926950508   21.15422553570111
F         8.16670560185486    7.06064136190262   21.42537343705943
F         6.75705394816045    8.25140721295656   19.40757995513197
F         8.06455196937224    9.05505107297136   17.12362987754560
F        10.47382895063053    5.69640150466034   16.43810746536406
F        10.05277728153509    3.02401413110491   16.63590259650807
F        10.18974322783164    1.43775821906871   14.39648756940680
F        10.74513869963250    2.59651982092705   11.98337399264984
F        11.10909386936409    5.22634197738272   11.76067513469754
N         8.50857502409961    9.19855524884416   13.92567886973099
N        10.62179891362361    8.48022517839504   16.69111138719571
N        10.89073902764421    6.92790400572398   14.09772627169657
N        11.13161245000422    9.55479659454090   14.38094441728439
C         7.45605961365070    8.85228650839648   13.14285885857494
C         7.43646124034216    7.58674968643704   12.51992837595614
C         6.36974940411665    7.10890382505797   11.78443205953812
C         5.24180558498617    7.90921671331723   11.60827182583933
C         5.22433366235661    9.17748508230777   12.18205193262761
C         6.29841947525130    9.63474780758566   12.92879960589746
C        10.08875545113592    8.13480514642339   17.89699536732142
C        10.79411013081673    7.57978870239043   18.97706886041162
C        10.15362508874022    7.21940987439812   20.15367062212578
C         8.78070993191328    7.41274735035149   20.29409724612985
C         8.05792482907239    8.00525103945176   19.25827867189512
C         8.71504248749856    8.36229843224975   18.09484743254700
C        10.77784147572115    5.57084701779759   14.10267266316691
C        10.50712754668092    4.92363392567250   15.32234047031340
C        10.30039630159164    3.56337277967783   15.44111119018752
C        10.37549873288401    2.75717884645710   14.30611489006749
C        10.66014514781151    3.35066352392722   13.08100540871452
C        10.85916299136299    4.72128902557026   12.98226464471829
C         8.94971490637602   10.57144907209205   13.98016920607083
C        10.41500707825174   10.51420723916512   13.53489072721653
C        11.88374242885642    9.18631035198253   16.65614348310168
C        11.70586628628032   10.22602876270155   15.55244990546114
C        11.63032095061857    7.57156937876124   13.03042630934375
C        12.18881673822772    8.85888452390681   13.62856407782680
H         8.39592518379758   11.22998332073075   13.30743127087247
H         8.86105919640027   10.95713127342597   15.00370284042580
H        10.88681617411346   11.50300614018064   13.56246526969605
H        10.42613550373143   10.14647038482100   12.50573152266490
H        12.64880525766098   10.72904891685241   15.30436575612124
H        10.98746521784589   10.97003070036232   15.90435838444679
H        12.09877158309589    9.68081444142345   17.60999604982092
H        12.71180984305778    8.49533046614864   16.43695222580728
H        12.61415926984172    9.50707130390228   12.85437072072637
H        12.98492389331047    8.58255969057811   14.32407531973558
H        12.45770819668257    6.95060050826204   12.67437665472550
H        10.96570595716221    7.78248678609080   12.18258139458657

