108
CSD_code = PIYJIS | q = 0 | S = 0 | Stoichiometry = C44H50ClF5N4O2RuS | MND = 5
Ru        1.98332595059150   12.94935408975159   17.11440785056531
Cl        2.70874792154592   14.54711970624289   18.76039967792611
S         3.90775765922146   11.54490233672013   17.47494739945384
F         6.06380888390758   13.54151499808748   17.02875106340435
F         7.37776490108632   14.98503825758371   18.89913002609991
F         6.84823114896551   14.60085923817743   21.55980983823323
F         5.00457290850206   12.72570310994837   22.31074675526117
F         3.67815099331679   11.29010465666242   20.43462784275212
O        -1.35383252588022   16.70828083063489   18.18270149194123
O         4.41632873354499   17.47683715123983   15.71810480267737
N         2.17167989529351   15.46820899239960   15.71142899731839
N         0.06621757178513   15.29704953897499   16.08624944188502
N         2.13392872020996   11.61153629295644   14.44586956581634
N         1.04494490338899   10.35951837181576   15.82978649573119
C         1.23853042247799   14.64416438533868   16.23697811322119
C         1.59534566115137   16.61596589877278   15.23983691775598
H         2.18143722019349   17.39358440229887   14.79704394245962
C         0.27113169340007   16.51303420459077   15.48510774125670
H        -0.53346862338755   17.19407967484174   15.30239200945925
C         3.59418837083400   15.23243828426526   15.70628860959906
H         3.96363263447829   15.24906051421957   14.67836966116010
H         3.78323813957507   14.23660594862412   16.14107257286290
C         4.35358677938433   16.29731208451985   16.49491693131436
H         3.85425797878818   16.49252190492707   17.45358135423172
H         5.37116197693231   15.93702489226469   16.69813559136358
C         5.10172903286248   18.51230493356270   16.37470713497834
H         5.10369604961039   19.36516973831325   15.69864416682903
H         6.13409417841237   18.22089440846445   16.60165519933010
H         4.60129776772621   18.78645869138514   17.31102445309024
C        -1.20039285685432   14.90020602147714   16.64082356061404
H        -1.31191722710949   13.81932452212669   16.55259954667712
H        -1.99624392110790   15.41009519650284   16.09385667709223
C        -1.25945373213277   15.30471201209373   18.11486266412714
H        -2.12186979729241   14.83416994860027   18.61018212177051
H        -0.34193032462460   14.95275153854709   18.60985860348614
C        -1.08900112628829   17.20850241066999   19.46967476028117
H        -1.17660767769657   18.29116497739152   19.40639269431192
H        -0.07844153584653   16.93624650981895   19.79375751012439
H        -1.80882015718437   16.81987690493233   20.19968992483397
C         0.48925051680601   12.42775944025828   18.14086130421132
H        -0.53288663615880   12.25229049316629   17.78729765952037
C         0.61136219044793   12.16231984673801   19.59649045531636
H         0.58770553771974   11.07316580224642   19.73446720724434
H         1.56319412940336   12.53112880618823   19.98368625407291
C        -0.52669694054000   12.77438133117922   20.37227927678495
C        -1.81605858126195   12.26884083847024   20.25917846423719
H        -1.99700537112402   11.41100226132772   19.62716415744790
C        -2.86121680336451   12.84926316044607   20.95510078552370
H        -3.85930373832747   12.44419381623135   20.86413432397864
C        -2.63029764574958   13.94378569325481   21.77186870318988
H        -3.44614528436275   14.39435980325107   22.31841593614959
C        -1.34853748992957   14.45391714148783   21.88735487634932
H        -1.16050888037277   15.30424828754218   22.52698910029251
C        -0.30321720927887   13.87413361334812   21.18928573706620
H         0.69473706509424   14.27718590787031   21.27637027536379
C         4.79338180708434   12.41692443027192   18.68041728928955
C         5.78100786941311   13.34183024388623   18.33120569947790
C         6.45977735205307   14.08276594960384   19.28177577410488
C         6.19160745166251   13.89032283838895   20.63196266514290
C         5.24863621641596   12.93998072921955   21.01052866983377
C         4.57479455115726   12.21048828112315   20.04653483329901
C         1.59041195795696   11.57361284546202   15.67220807520787
C         1.97619755262235   10.36986885482371   13.69213565360822
H         2.95422210829312    9.95623970285093   13.43320037246950
H         1.42799723115316   10.56226558915688   12.76391061639906
C         1.20632957666027    9.48741917055374   14.66813560609714
H         0.22698440225858    9.18148845293922   14.28707999445585
H         1.75873990219383    8.58615834213188   14.94956518080535
C         2.66427385287293   12.72482279022519   13.74100773991355
C         4.03851262635241   12.80748109063332   13.50173621768278
C         4.51587723874329   13.84888044511719   12.71600714442119
H         5.57858199006644   13.91799124391052   12.53361616999084
C         3.66755499012457   14.80317929665780   12.17303358371578
C         2.30407298857997   14.68768531022114   12.40910722057486
H         1.62775760845330   15.41341675716991   11.98044718495933
C         1.78549861163779   13.65115688035636   13.16889850800212
C         4.99783881849427   11.80826344795043   14.06834190620578
H         5.94382978297526   12.28940701266996   14.30425358583781
H         5.19627357533664   11.01710134986577   13.34403498887528
H         4.60615925155604   11.35787800457854   14.97775876560817
C         4.21417484430116   15.95010673357682   11.38147667956176
H         5.10862166370124   15.65623982400285   10.83747330170665
H         4.48320425489350   16.76426046635684   12.05574398201507
H         3.47593163801692   16.32519578572200   10.67687668027062
C         0.30181528670880   13.50572151542820   13.32960437441426
H        -0.20034582370655   14.44317839159091   13.10590351463649
H         0.05454824278621   13.20482035667138   14.34539629656733
H        -0.07571730595199   12.74686763672611   12.64278027856940
C         0.22780392249198    9.86179054353004   16.88197303713584
C         0.77008128037541    9.07721996877426   17.90067984733752
C        -0.08122735261829    8.56075525686668   18.87054900460451
H         0.34273125632208    7.97083987538446   19.67055509977958
C        -1.44991997484121    8.77352182954591   18.83531920528689
C        -1.97289362650313    9.51608278659599   17.78526770663564
H        -3.04061486590559    9.67600027995262   17.72514046000351
C        -1.15696780329710   10.05716504832457   16.80457826819555
C         2.23009287321575    8.77164752942507   17.99502920791335
H         2.38224263616386    7.70238754643238   18.13298831059124
H         2.65618106811393    9.28401632004355   18.85622350561741
H         2.77225004204529    9.10203532442933   17.11512543348485
C        -2.33438652832045    8.23123740983960   19.91505112686399
H        -3.37578919115390    8.22801529743091   19.60296165291045
H        -2.24708405537650    8.84932845298354   20.80922184443117
H        -2.04131482374507    7.21809775036117   20.18133357013063
C        -1.77259113946436   10.83374744223836   15.67770796019557
H        -2.67673841317514   11.33785921607283   16.01155549361255
H        -2.05020068005201   10.16132173953058   14.86486629935585
H        -1.07709019026198   11.57373678980826   15.29105618428056

