37
CSD_code = PIYLIS | q = 0 | S = 0 | Stoichiometry = C14H18Cl2Si2Zr | MND = 12
Zr        1.20440862647972    2.08905955397575    9.47917085212386
Si        3.37725742782588    3.23735224131192    7.51092733146280
Si        4.00217378198300    0.67325112473556    9.76922558272369
Cl        0.01967219866227    0.89883002250725   11.09751134320122
Cl       -0.59640020316676    3.44006529720628    8.86975838700979
C         3.16865298093151    3.45375263168587    9.38531415881790
C         3.42137080932055    2.39189960477429   10.32161563922772
C         2.63662699057623    2.64985289603747   11.47470044426843
C         1.91160089798173    3.84303161430874   11.27264629014604
C         2.23529866316168    4.33439129654548    9.99047969459812
C         2.41936334561088    1.60071849369595    7.47832715860760
C         2.68281168156677    0.53844507593048    8.41119670347814
C         1.49381712385783   -0.22756876249072    8.52284948675465
C         0.51023047779690    0.33428540583124    7.68209021709911
C         1.07679795237300    1.45765880106221    7.04368342444972
C         3.54707626436846   -0.57457004493183   11.14061003173638
C         5.83158554562447    0.53409341534887    9.24650660253078
C         5.15056581057675    3.18873729286347    6.81404060245049
C         2.30568509942454    4.56637868599608    6.65614319591897
H         2.66130119264620    2.07955836244293   12.39629993027258
H         1.29835033279878    4.34764242827692   12.01078580705596
H         1.89801728635629    5.27904816055182    9.57953746420182
H         1.38435636345129   -1.14779274375546    9.08512636790143
H        -0.46973227222764   -0.08422806979394    7.48184023029841
H         0.59378696140576    2.05200450167288    6.27641565293566
H         5.79175208056455    3.89733041718168    7.32657871618115
H         5.14159447417373    3.45467337660459    5.76288339986625
H         5.59546810602180    2.20519884387181    6.90138689854884
H         2.72446410625112    5.55781116497907    6.79398727223637
H         2.24406342600442    4.39126753684102    5.58703821914214
H         1.29254026656957    4.56748522481101    7.05747341614541
H         2.50348540264802   -0.46661673933270   11.43499554010855
H         4.16255782177107   -0.42840094902205   12.02224662084522
H         3.70045498215249   -1.59634893731965   10.80913929967998
H         5.94198745141271   -0.05993844333887    8.34625160787076
H         6.40372211819068    0.05021370336409   10.02990263185395
H         6.27533442485364    1.50632751557047    9.06841377825010

