91
CSD_code = PIYLIT | q = 0 | S = 0 | Stoichiometry = C36H48Cl2O4Zr | MND = 6
Zr        0.44650138795207    5.52501195362508   12.16799166207269
Cl        2.13002917149465    3.91725368151000   12.56664564564513
Cl       -0.67365780184032    4.54964234094713   14.03270240941086
O         1.37128235631447    6.87781939802096   11.19544898714037
O        -0.83428939665510    7.27308870656528   12.73900919894573
O        -0.70859828054681    4.74947354540698   10.88162497762750
O         1.56154363397720    6.59084119772353   13.96471239475780
C         1.87619089106596    7.72569129441802   10.29882618449461
C         3.01513938273072    7.42649366265683    9.51297350103500
C         3.44252122529991    8.36230963342239    8.58333839239250
C         2.82453929647173    9.59087221415332    8.40745407333261
C         1.75202385348598    9.90194817476042    9.22650689864958
C         1.28872247944096    9.00111480633404   10.16618175305715
C         0.13793428375757    9.37758573100631   11.06925186921089
C        -1.53000981686691    7.54747386918470   11.54547309976418
C        -1.07667986341872    8.56823973458276   10.71104785325259
C        -1.73818401802863    8.79484259343633    9.51241975108801
C        -2.84071495308981    8.03772290233492    9.13995406872693
C        -3.27832846041093    7.03538392977730    9.99250508103148
C        -2.63708081783676    6.77371793083009   11.19742063930647
C        -3.11515885400498    5.64003413973840   12.06336205372843
C        -1.79391491604868    3.98222771784010   10.69033930541889
C        -3.01486609159645    4.34453906707517   11.29295987623432
C        -4.14020498265611    3.55057815152119   11.15505426224090
C        -4.10813868181600    2.38758664349969   10.40957595776706
C        -2.92801313084460    2.07416654485374    9.75015750391599
C        -1.77970873677577    2.84304007543605    9.84671650592699
C         3.77054586720893    6.12128396565512    9.72731186384840
C         2.83425652414744    4.93965457685215    9.44575309831385
C         4.25954684744346    6.08079543886668   11.18276455824355
C         4.99773437668685    5.97196837272323    8.82091820123043
C         3.30951963053889   10.57006523886309    7.37930318121391
C        -3.53302509859398    8.30683917129489    7.83912192101351
C        -0.54217091711541    2.49999638927628    9.02798945947268
C        -0.74174378004906    1.30184384501234    8.09197123056995
C         0.60863368677451    2.15675287959018    9.97918113330987
C        -0.20065141881290    3.71335276922401    8.14935688188680
C        -5.30882531266255    1.49762518639848   10.28269714524352
C        -1.47193772868330    7.77401218239857   13.91748844823097
C         1.90858635848023    5.87669360804192   15.17630694159315
C         3.04698364046300    6.64751148749812   15.85198339004257
C         3.58129113882241    7.51604076455281   14.71660248324470
C         2.29601818925215    7.81751899072479   13.95720779662530
H         4.29729519288902    8.14171203373447    7.96510371043727
H         1.27553534764882   10.86932567549317    9.13895366534499
H         0.41613468699778    9.18988591271592   12.11009511472397
H        -0.08032911527481   10.44090535979938   10.94769967987505
H        -1.37600181424417    9.57303856459939    8.85678461976639
H        -4.12479670222823    6.42346208160580    9.71638483496393
H        -2.52733568054808    5.55592138652794   12.98062334678796
H        -4.16131245429338    5.80508524532241   12.33612986748931
H        -5.05749299818147    3.85067360289549   11.64367165036363
H        -2.92608306785407    1.18973777597695    9.13459078298006
H         1.89273874593037    5.05007871375904    9.99548450360382
H         2.61396113346574    4.89372646794213    8.38054541337599
H         3.30691681309661    4.00763498578611    9.75088599015483
H         3.41088987806083    6.09753657156724   11.86590934596007
H         4.82002724859357    5.16623472550563   11.36470132872427
H         4.90430360637857    6.93670916840693   11.38253321453465
H         5.47587928907033    5.01748835334984    9.03119545608864
H         4.71902996870330    5.98205788165451    7.76975085421593
H         5.72436931698242    6.75986896673185    9.00588396402222
H         4.19042322278090   10.19099029890196    6.86763292422661
H         2.53404932546878   10.75824480612073    6.63696416562265
H         3.56152277493750   11.52227044936450    7.84507488983917
H        -3.92016109032981    9.32476255641063    7.81932241467371
H        -2.83298894228702    8.20145854689289    7.01204563195258
H        -4.35820035669827    7.61664151641692    7.68763150475921
H         0.70673397312191    3.52259654282545    7.58028933822223
H        -1.01477896231672    3.90001703438397    7.45035913678601
H        -0.05762794679957    4.60847262859524    8.75274874101788
H        -0.94939027902366    0.39230314572684    8.65018392487073
H        -1.54810351618009    1.48039135629888    7.38422751256501
H         0.17402182322132    1.14260878756474    7.52570299007159
H         0.37665168396918    1.24475903176410   10.52686301171746
H         1.53156794493305    2.00111600090672    9.42408230678792
H         0.76265339243936    2.95712978060112   10.70256623956553
H        -6.17192101190306    1.93825266454161   10.77553692018795
H        -5.55357523334313    1.32832643074472    9.23474066680415
H        -5.11008812256813    0.52808760142670   10.73865955349382
H        -1.20581465813062    7.10421652950025   14.73930211048348
H        -1.12511126851884    8.79325362199805   14.12873586087997
H        -2.55836509995440    7.79004257012150   13.80259024067856
H         1.01979294947775    5.80436455969843   15.81230721012832
H         2.21937778763680    4.86814548956898   14.88288679099039
H         2.66435330275432    7.27264747066481   16.65990305514922
H         3.79961693955141    5.97698868803336   16.25787277854259
H         4.08444343114981    8.41559735509134   15.06276123832863
H         4.25822919612110    6.94041857109097   14.08545266582649
H         2.46095370485317    8.11529014692392   12.91985442429214
H         1.71736447706363    8.59456783812137   14.48216276756193

