83
CSD_code = PIYNOC | q = 0 | S = 0 | Stoichiometry = C33H44AuN3O2 | MND = 2
Au       -2.24668301702261   10.46795741790995   12.23433748111253
O        -4.57712216399035   13.91200213438040   11.21285144198306
O        -6.55840009573364   14.76190417991801   10.56032570271047
N        -6.25276264082342   12.51758414410888   10.87470399715261
N        -2.70151917767628    7.52872141869322   12.34809387360909
N        -0.65949735138076    7.90460919421467   12.85887022263981
C        -5.86259640123657   13.82271935413722   10.85499482970834
C        -7.56930542292710   12.06157541769155   10.55465639330727
C        -5.18687293908989   11.64435592371721   11.27315325241010
C        -4.05839255927413   12.62740796019659   11.49558946836984
C        -2.81629984428631   12.37002182357722   11.88069942085052
C        -1.86740264156252   13.53556439838384   12.03072006437217
C        -1.80616452744443    8.51781718934930   12.52092712754580
C        -2.12498809969505    6.30614453917801   12.57523900329910
C        -0.83175859070908    6.54408104960187   12.89882356586756
C        -4.05267289681754    7.75898915444001   11.97216031584087
C        -4.99763197304307    8.01736255148410   12.96670363005382
C        -6.30730247416697    8.25937300107228   12.57428253426698
C        -6.65980928200830    8.25227931502317   11.23863799212317
C        -5.70737309948991    8.00328561510027   10.26923599608222
C        -4.38776475214014    7.74808878903333   10.61659615871686
C         0.55551927866774    8.58602525448661   13.14027852523037
C         0.86240749439631    8.89205523573428   14.46811250538072
C         2.04422316286447    9.57338391440027   14.72227534505571
C         2.89133698924971    9.92896877232129   13.68969749437784
C         2.56889905979097    9.61682282447731   12.38350670939294
C         1.39396094175250    8.94060861314398   12.08274869209172
C        -4.61932281352189    8.05826754697394   14.42824228175772
C        -4.85194619347095    9.46061939967958   14.99459070442265
C        -5.39779037149787    7.00687721966879   15.22241695168833
C        -3.34587841650253    7.51285353827536    9.54853175938109
C        -3.08476810920986    8.81626349057255    8.78931209481184
C        -3.76342164835212    6.39414267294787    8.59202136650476
C        -0.09398953811132    8.54999479443232   15.58649408293314
C        -0.89377498411622    9.80281468413380   15.95554726915249
C         0.62017242249765    7.97892826132102   16.81221890721827
C         1.03884874550591    8.62643428781202   10.64896383030673
C         0.79046652764067    9.92309404018134    9.87568680122919
C         2.13174572241489    7.78831918561363    9.98206982770480
H        -8.16709148983614   12.93560035892574   10.30053008830132
H        -7.54337148385991   11.37525295763329    9.70257020341798
H        -8.01778157944417   11.54696334229258   11.41023400544856
H        -5.44418439533378   11.08630358843028   12.18527919861281
H        -4.95510909797662   10.90894367531638   10.48894644625556
H        -2.34698557957877   14.48373386825611   11.79680005425735
H        -1.48840651092519   13.57401690364156   13.05234617421082
H        -1.00991857299062   13.40192950070944   11.37033105274363
H        -2.67422824415148    5.39169856737964   12.48792018699030
H        -0.03254622602246    5.87743378067011   13.14878662661203
H        -7.05903927312315    8.46281692209422   13.32091121718640
H        -7.68153912516810    8.44909585926852   10.95053110063432
H        -5.99328969247374    8.01342415190708    9.22918675180417
H         2.30441333306630    9.83520094239047   15.73522273843789
H         3.80673723908659   10.45930448671226   13.90539741318934
H         3.23526209564793    9.90955361228183   11.58745909403731
H        -3.55313344884751    7.83366293055863   14.53099457173731
H        -5.90512284361519    9.72631239823680   14.95802775629410
H        -4.52378523359215    9.50418053408887   16.03041798297839
H        -4.28832751011961   10.19562411778630   14.42105758529648
H        -6.46447240146032    7.21293639102369   15.20179451659827
H        -5.23277482495156    6.01423471155186   14.80773466959310
H        -5.07055173861634    7.00637491201191   16.25958185561263
H        -2.40728026779188    7.20815643257741   10.02269480343967
H        -3.98278268823181    9.14919791675134    8.27506801274832
H        -2.77173166941766    9.59914447605116    9.47991645400705
H        -2.29992259077098    8.66908484905284    8.05099739409608
H        -4.63989266083750    6.67575631858068    8.01537581698899
H        -2.95512517406809    6.18162477590842    7.89620974304653
H        -3.99268283266817    5.48445651244593    9.14341940074029
H        -0.79837777674296    7.78872002299548   15.23443568309924
H        -1.42894370064339   10.18233494066960   15.08588944902734
H        -1.61414101332357    9.57323616070869   16.73720499029535
H        -0.22867929390324   10.58437190219452   16.31436139121329
H        -0.11251710422869    7.59901916683391   17.52074330297279
H         1.27971650892521    7.16202211165368   16.52680399508982
H         1.20928213419918    8.73948593604588   17.31668291296881
H         0.11240765552271    8.04392521323882   10.62656153459407
H         0.49268639926934    9.69871308357481    8.85419332479050
H        -0.00454013241812   10.49606718171066   10.35126893331622
H         1.68776838098963   10.53531547457468    9.84715135545536
H         2.32072191080781    6.88073654948203   10.55230371241047
H         1.82245985027366    7.50695770650605    8.97806126610438
H         3.06145234973647    8.34555644779448    9.90717761295049

