27
CSD_code = PIYPES | q = 0 | S = 0 | Stoichiometry = C10H11FeNO4 | MND = 7
Fe        3.93542695594664    7.09647672773743    2.59050156670831
O         4.80204323459272    9.82503752307991    5.54729426362477
O         5.19466073818356    5.50123766961195    4.67771166742516
O         3.73799884736361    4.47304370288715    1.36096590642592
O         1.18757339327811    7.25650443079461    3.64803545464481
N         2.76421977503628    8.36502962071171   -0.38933835402985
C         5.23228750900368    9.16658732218667    4.62949468551589
C         4.61333010571550    9.04574037399377    3.31669804741271
C         5.41230681019757    8.58388005005175    2.21590355969143
C         4.82442442256688    8.38952536165282    0.95009595931262
C         3.45276862431631    8.65012902463475    0.75684098407381
C         1.32645472195967    8.48939834295123   -0.30518548894834
C         3.21876743682162    7.26297048852069   -1.20487023546234
C         4.75413250246217    6.16576765729778    3.85461588857917
C         3.81891585622770    5.54078403792921    1.78483468416329
C         2.23471211359757    7.25944856395720    3.18585408953145
H         6.17513122458779    8.58743312660625    4.74312657341550
H         3.86382149455433    9.81799721329857    3.15308218911200
H         6.48059251785742    8.44170396290547    2.33865267970669
H         5.43156189954702    7.99957809095484    0.14246935829168
H         2.99242706740389    9.45298369744039    1.32152505405283
H         2.53677126120172    7.12945348383822   -2.04110056141214
H         3.26084657090282    6.33144837281703   -0.62578511868486
H         4.20935684786724    7.47392314747716   -1.60384323579528
H         0.90410366334124    8.51673831272758   -1.30859051718702
H         0.88539646379537    7.64772877386199    0.24550991171429
H         1.06376794167154    9.41365092007383    0.20620098811742

