23
CSD_code = PIYPAO | q = 0 | S = 0 | Stoichiometry = C9H8FeO5 | MND = 7
Fe        5.82450179441761    5.43737518631973    5.93292515697642
O         5.10533641017655    2.56613736882017    4.60567306390430
O         4.95694668109119    8.85083337119749    4.90870407703134
O         8.19411980670960    3.83451341285995    6.43969484260980
O         4.48168579236144    4.79078846003175    8.46522131583747
O         7.37405429800273    7.74284700065619    6.82792744278054
C         4.60462201913013    1.71815978380273    5.61093196350293
C         4.69916277951442    3.86902947199360    4.69869750369888
C         5.31903894286191    4.79572166357057    3.82316562569139
C         5.10075357429992    6.16475136485964    4.01746086934070
C         4.19300884656313    6.60811782912797    5.04599343890823
C         4.13907297021819    8.04669371704198    5.29508919251743
C         7.26572237112441    4.46176878948519    6.20540631381739
C         4.96134292332840    5.01425485959705    7.45086923883488
C         6.77163281221114    6.86493852966117    6.42040482735982
H         4.97388203449004    0.71958305366257    5.38956637472807
H         3.50893906579026    1.71186218519264    5.62116055705219
H         4.96863159161662    2.03773676345788    6.59585500924776
H         3.64249637265276    3.97877449173302    4.95372437992807
H         6.04208648169306    4.43384106394069    3.10221581108801
H         5.59381433779772    6.90557135055153    3.39803871826894
H         3.23826721083850    6.10408610501152    5.17297720099431
H         3.26648088311032    8.37391417742487    5.89509707588108

