51
CSD_code = PIYPOC | q = 0 | S = 0 | Stoichiometry = C20H24FeN2O4 | MND = 7
Fe       -2.75556141221781   -4.48287136002812   -4.89666482296891
O        -3.80825806865470   -2.23688700340787   -1.21827782580028
O        -2.16781267149254   -6.83273979905580   -6.49905167342477
O        -0.73498248279866   -5.76124051087087   -3.23630971872926
O        -1.20001300493464   -2.52206759364102   -6.44997534505895
N        -1.78219924739843   -1.73513456824621   -2.13947335714675
N        -5.38002802812833   -3.93723061435708   -7.04906059960974
C        -4.86384599140502   -3.65112834575730   -5.81104543973005
C        -5.01646222558723   -4.46913454384558   -4.67370750938284
C        -4.34072030691510   -4.14840902088319   -3.47884536462349
C        -3.44623448213173   -3.03722830608298   -3.43256813038506
C        -2.81338662619433   -2.75348449512318   -2.08622419492196
C        -1.76347517066258   -1.17509928539651   -0.79476032454685
C        -3.27000180286168   -1.15916998079912   -0.46087495114856
C        -0.50305869389625   -2.21524948822663   -2.60127958311701
C        -1.07877879566714    0.18038213827012   -0.72093957507311
C        -5.56469248944761   -5.32602624403843   -7.40094354976341
C        -4.87998976384188   -3.11830444849310   -8.13035520555374
C        -3.95300903773264    0.13916231720798   -0.81360721757829
C        -4.52634364981223    0.92510597280223    0.17574033664579
C        -5.15278018041635    2.11619333781570   -0.14859941483939
C        -5.21579853178093    2.53042503623273   -1.46743552468616
C        -4.64642385584036    1.75028144443879   -2.46019954712919
C        -4.01773446237922    0.56260467811718   -2.13526257518388
C        -2.47581008655686   -5.90412255152452   -5.88743620360974
C        -1.57157453112633   -5.25267932721309   -3.84041927173511
C        -1.86897335162318   -3.24366502654897   -5.85755764787649
H        -4.72323572035890   -2.58623322828415   -5.66372105831674
H        -5.62756506746935   -5.36222876781409   -4.70998581606902
H        -4.50347584838791   -4.75088540073024   -2.59264118187178
H        -3.77287315256406   -2.10276899630788   -3.88449610742387
H        -2.41981027749060   -3.70136392925789   -1.64477351736062
H        -1.26152798370554   -1.87252527581536   -0.09390699363835
H        -3.43717558762691   -1.37571914064123    0.60270622959161
H         0.17785352566414   -1.37215176121232   -2.69455827810735
H        -0.63322629199062   -2.67467251426038   -3.58056389975250
H        -0.06448666167314   -2.96037117750672   -1.91927489634238
H        -0.00226609321484    0.06447226962429   -0.81641785940930
H        -1.29323515709464    0.64642275251614    0.23778852510852
H        -1.43570967737832    0.82927268466516   -1.51499169674601
H        -5.92042928194928   -5.39246858795250   -8.42648718728431
H        -6.31029972308977   -5.78071955814173   -6.75126775613550
H        -4.62596622301416   -5.88812155124641   -7.31057722757783
H        -5.51863957221178   -3.23854262955033   -9.00395489286885
H        -3.85143164174227   -3.39623468670656   -8.39787050733840
H        -4.88932668385499   -2.07081146921919   -7.83513192517200
H        -4.48295402569975    0.60344254515301    1.20696491401461
H        -5.59494415787119    2.72052972903643    0.63013357935589
H        -5.70682960257312    3.45858310086152   -1.72116488676219
H        -4.69033115024495    2.07239748543997   -3.49085868661202
H        -3.55756499295827   -0.04398430400661   -2.89991463629433

