56
CSD_code = PIYRUK | q = 1 | S = 0 | Stoichiometry = C21H30IrOS3(1+) | MND = 6
Ir        1.96041871166621    3.89447589773320    2.84085421062791
S         4.51973623770492    4.05124623894485    2.28143393215975
S         2.06432178363294    1.79189290802889    1.62767053867469
S         1.75062335129222    2.35736589524870    4.98552784502059
O         2.21961967827989    6.30614684566159    4.58732669417377
C         4.20012378380457    3.19495881783882    5.81506924833299
C         3.94989803124430    3.89127584523747    6.99553788740484
C         4.57886322363563    5.08813157934618    7.27255529019319
C         5.48423324487192    5.61147335831826    6.36438645388808
C         5.74385524665069    4.93082825043290    5.19224764929357
C         5.11116296370434    3.72525685048603    4.89710027317295
C         5.43030472366639    3.09602758477344    3.57576312653034
C         4.52042571600838    2.92390499613875    0.83666530250752
C         3.79472689641389    1.60778983692951    1.02351509775749
C         2.01259563810838    0.45819035472967    2.89683269476344
C         1.21474705593057    0.82881618304007    4.12891280987613
C         3.44132734616232    1.92302092081136    5.59781215609321
C         2.05848508836353    5.41874708819669    3.88152572382873
C         0.80858844790005    4.81672439840307    1.22712781843568
C        -0.09264262167833    4.22522344984853    2.13110439788599
C        -1.03599807578316    4.99449250072332    3.01806130992496
C        -2.34119740791649    5.36207723217606    2.29217244591564
C        -2.21571233996177    6.49809400565618    1.27559517547725
C        -1.49027520464999    6.11994838546286   -0.02326417592545
C        -0.07428954038153    6.68218348477388   -0.15484750904846
C         0.87320114772073    6.29960289067497    0.99478235706356
H         3.24464666919597    3.48049654221433    7.70229233046936
H         4.36519866114265    5.60876539127197    8.19216963260465
H         5.98504418214768    6.54424538655733    6.56811049198959
H         6.44750595688894    5.33662029814455    4.48091698412207
H         5.14492932933595    2.05030331722710    3.51141307120429
H         6.49067186547526    3.19459432281368    3.34398856617828
H         4.05639699932566    3.51862768863005    0.04949243400108
H         5.55982591791863    2.73246766049252    0.56575340380901
H         4.32553569301252    0.96412499503337    1.72517905442391
H         3.73463907709570    1.08982533999099    0.06440579143370
H         1.55797598942198   -0.41107815417453    2.41751166887971
H         3.04025657693815    0.20525627476432    3.15968692575998
H         1.25534563874459    0.01219551421062    4.85118493115880
H         0.17208224365828    1.02301174081443    3.87678119033449
H         3.29629273413645    1.39534868312224    6.54011061769112
H         3.91253283912025    1.25311537263715    4.88429308165601
H         1.05972587354388    4.24221938515021    0.33477637242954
H        -0.47602512948095    3.23828575336307    1.87019492803828
H        -0.57270712313395    5.90486406613811    3.39548279106063
H        -1.29154067653115    4.37265725543881    3.87809741816960
H        -3.06070396835405    5.66858619102717    3.05342304265981
H        -2.74574651363712    4.47683461265868    1.79749390645995
H        -1.72429051487181    7.35203143723705    1.74244639784510
H        -3.23057170679688    6.81349787899210    1.02792789270657
H        -2.06051152970932    6.49874885295651   -0.87314510206269
H        -1.46453736175500    5.03396353421449   -0.11896146666665
H        -0.12177772573457    7.77067156134083   -0.20484665566150
H         0.34639120697241    6.32765594788418   -1.09830299599811
H         0.59653906087933    6.84237878123044    1.89545851332266
H         1.88533260866318    6.60008856877453    0.71969602792283

