52
CSD_code = PIYROE | q = 1 | S = 0 | Stoichiometry = C20H28IrOS2(1+) | MND = 6
Ir        2.50603422785416    1.77601681593713    1.89116533016914
S         1.28431500367760    3.94630717840226    2.77976599961532
S         2.58626678486699    2.28871944500055   -0.49886503959573
O         0.01110473106756    1.83620333496012    1.06216982170306
C         3.60663082573976    4.67408407059786    0.19032536987023
C         4.95008970608269    4.53659122351273   -0.14873960466193
C         5.95046118019843    4.95443435106686    0.70680001756297
C         5.61652779229885    5.52092836327950    1.92584214467706
C         4.28733125028419    5.67286300639389    2.26868348830414
C         3.26930915706996    5.25828543794386    1.41447510970815
C         1.85422162468867    5.44475583553872    1.85792247540764
C        -0.49712603282829    3.85978097961183    2.33892445264473
C        -0.87741038553174    2.42018557601543    1.98848857242172
C        -0.20328602643885    2.23817706673432   -0.27758973192005
C         0.95738431071322    1.75743571859590   -1.12688898155931
C         2.59120156989304    4.11560229054076   -0.75845427121677
C         4.52425090289199    1.16474384706019    1.74021764876586
C         3.68319469798149    0.06409993508836    1.44169232567924
C         3.47850096577469   -1.10257964590077    2.38878176556176
C         2.26450745742050   -0.88026249755436    3.30746437342024
C         1.99813408977703    0.58012861071528    3.58956735617256
C         2.96992538312640    1.49908406985187    3.99988601906002
C         4.41170535742939    1.12481814355646    4.26819462089647
C         5.28960449469893    1.34351863425402    3.02655445687831
H         5.20607162542494    4.09117323994328   -1.09862530938841
H         6.98467368738979    4.83796619207596    0.42414090073692
H         6.38840977542120    5.84884671581066    2.60391867319903
H         4.02549666765511    6.12152503375360    3.21496249922614
H         1.77789224042310    6.27526004295211    2.55920347382872
H         1.16882417819455    5.61837049845682    1.03055802945949
H        -1.07313882472288    4.19652922082369    3.19914207940895
H        -0.67698413798642    4.54117430808648    1.50834381051834
H        -0.81894497987048    1.79582632019550    2.88213105542125
H        -1.90555638984959    2.39335389925376    1.60654252650435
H        -1.13745429881071    1.79631518318310   -0.65305429823666
H        -0.30004711715266    3.33033087404159   -0.35031621289803
H         1.01077447633977    0.66962022711892   -1.10557915074846
H         0.85647335219558    2.09986871303020   -2.15572161104242
H         1.58649711310022    4.49918280154961   -0.60435022517733
H         2.88653276737888    4.28062968419212   -1.79475637645344
H         5.00809733519475    1.65399111084078    0.89478150258084
H         3.59805979083903   -0.20335569371676    0.38904567373962
H         3.31639655279784   -2.01004493348357    1.80826941057029
H         4.38539036687393   -1.25080890665951    2.97301917506552
H         1.37706935471544   -1.29651704781037    2.83038351385533
H         2.40025134723664   -1.40864713434642    4.25499967723486
H         0.96805204945841    0.78069052195914    3.88397269144288
H         2.62695775069745    2.36717612950009    4.55842915314090
H         4.79192443367231    1.73977704712079    5.08307924073520
H         4.45626482018901    0.08711895301582    4.59465102766001
H         6.14543097562249    0.66351575902508    3.03568231084326
H         5.68250601883874    2.36060944888276    3.03926303921060

