52
CSD_code = PIYREU | q = 1 | S = 0 | Stoichiometry = C20H28IrS3(1+) | MND = 7
Ir        2.21050956880099    4.28941869094512    1.34384212664706
S         3.37209743320703    2.65541093611311    3.38151611847810
S         0.20285782869131    3.23848277451127    2.22235508365428
S         2.11065759369462    2.53471684617890   -0.35648427944985
C         4.51400319287973    1.30903237505729    2.83640821105785
C         1.90077854027055    1.68596287859181    3.90379560024792
C         0.62649751379407    2.50490093138480    3.84505912745164
C        -0.07252059544041    1.71626106770452    1.22037520103136
C         0.39919253230245    1.90264029203123   -0.20495882186046
C         3.10704474521604    1.07228411373315    0.16413273405251
C         3.27613347034667    5.44596023950332   -0.14049021988155
C         4.13097719451909    5.17827309755966    0.93714774370401
C         4.54419586911707    6.23150412476141    1.94529817022331
C         3.61049652566345    6.27346183034239    3.16854135810500
C         2.21049097548414    5.79900734915623    2.85718165163008
C         1.43968138071143    6.26623192479119    1.78172060605218
C         1.91324509571040    7.35167053843583    0.83969763983907
C         2.60398326503170    6.77201343035992   -0.40388854371100
C         4.52805004463906    1.52386128323568    0.30489082652422
C         5.21051899268022    1.86435424538941   -0.85967064107031
C         6.50861164560661    2.33407485797539   -0.81732997267697
C         7.14644036480168    2.46914570727234    0.40470833136665
C         6.47995598323284    2.12986931349492    1.56659114778117
C         5.17175583331417    1.65406912561346    1.53887536771612
H         4.70734660187744    1.75929424301855   -1.80953046369032
H         7.01914554286382    2.59203694795526   -1.73135970924875
H         8.16012247028020    2.83404185876386    0.45273750015834
H         6.97982508024730    2.23195883949974    2.51803740383087
H         5.26024293633402    1.20930193302582    3.62357481075824
H         3.93890732873484    0.38645867654914    2.78204486780750
H         1.83571978413537    0.79478272646196    3.27770958017493
H         2.06116576428638    1.36625078147048    4.93484516789086
H         0.69528201086119    3.36108391430411    4.51573875472103
H        -0.22739015520527    1.89443018877412    4.14355651347682
H         0.44124650385312    0.88823813122418    1.70614624100546
H        -1.14540646762230    1.51825406567702    1.23665826572638
H        -0.20605856345783    2.65192601828948   -0.71594675517977
H         0.34355906386217    0.96414576728046   -0.75832552545454
H         2.69218533015270    0.66855945358554    1.08267048357974
H         3.00690186264175    0.33766058270004   -0.63596269718003
H         3.42595884562926    4.86011554950095   -1.04606232313621
H         4.85898717411303    4.38229061456323    0.79709878347604
H         5.55607300622210    6.01413620777427    2.28517442998848
H         4.56828211185830    7.20088069524656    1.44888776955467
H         3.56563027451678    7.28559314324484    3.57925206952145
H         4.01544765534373    5.62551883539940    3.94600011669250
H         1.67258237413463    5.45963614003158    3.74170416907538
H         0.35920166865605    6.19211711977969    1.87699105522440
H         1.05607931828537    7.94492121003247    0.52314145480643
H         2.58772200825968    8.01482869162711    1.37934091440771
H         1.86172016133089    6.62095690062012   -1.18764544978092
H         3.34606531352884    7.47417278945591   -0.79349199512140

