63
CSD_code = PIYSUL | q = 0 | S = 0 | Stoichiometry = C17H41IrNP3 | MND = 6
Ir        0.70079972031006    5.02720853294887    7.80064361222666
P         2.77018796048427    5.97979462697518    8.18526690292620
P        -0.55121813900185    6.21720016577683    9.58027370526216
P         0.03897463672231    6.11662717932250    5.88001155436255
C         4.13229507616213    5.39143237955649    7.09257520553181
C         3.14850718851334    7.79009922650963    8.13606100113704
C         3.50587377966930    5.60417820875038    9.82907287753508
C         0.20469071099393    6.46773083852486   11.24243739830978
C        -1.14784773117653    7.94849554858147    9.31989338944098
C        -2.15550798514868    5.47320651285237   10.09267712180513
C         0.60742604278265    7.80431887759250    5.38795569905924
C         0.42780845930473    5.23883807342227    4.30601815006592
C        -1.77098096038005    6.35556404583979    5.61369584638082
C        -0.65381369729561    3.40714392401327    7.45111502595123
C         0.70241871929060    2.96255391872209    7.46369619365702
C         1.45456539486763    3.09908469943194    8.66870066348976
C         0.94339312497563    2.90987847240438    9.99579101414575
N         1.74337203040300    2.87190578005713   10.98915033723101
C         1.33843076467614    2.56190124703269   12.33819855830267
C        -0.15554281011764    2.72677245045815   12.66344206694918
C         2.16405955468151    3.46700321511782   13.26525624549658
C         1.74131896092121    1.09851157999832   12.58994074764935
H         5.08971986209937    5.82773656787177    7.37537105729270
H         4.18953368007497    4.30790797240872    7.16592427902280
H         3.90097495068745    5.65477748784195    6.06212366394339
H         4.16867145482464    7.97695042648819    8.46997268032278
H         3.02491589934046    8.16743722938519    7.12414461932459
H         2.45350323494984    8.31596308259390    8.78813069101415
H         4.58900565487737    5.71996189618494    9.80337275385197
H         3.08939341738444    6.29000587850834   10.56352265583332
H         3.24506128658815    4.59002231842855   10.12791397404946
H        -0.54009022692875    6.75660909015890   11.98371594466528
H         0.68985630544685    5.54300351018905   11.54428798872261
H         0.96276000826896    7.24556945126326   11.17002902293546
H        -1.64229914929233    8.33216394978407   10.21154126048062
H        -0.30068274198626    8.58506585814924    9.07311559120245
H        -1.84399362021554    7.96616914485173    8.48486996913679
H        -2.66366046785584    6.09276325788220   10.83119687893077
H        -2.78664410550966    5.36047232549868    9.21328614382966
H        -1.97224471276296    4.48782839275773   10.51414147799046
H         0.10757898289991    8.13612971110317    4.47882412486128
H         0.39748873267475    8.50271437015712    6.19522386055466
H         1.68175880642211    7.77760837368707    5.21904075124192
H         0.04128766020543    5.77476204095188    3.43998623275568
H         1.50718750384661    5.13415623837095    4.21995662967301
H        -0.01040229200411    4.24452121322764    4.34666408361603
H        -1.97819913694473    6.73463098680273    4.61370745542058
H        -2.27383365298652    5.40205888424168    5.75438981216113
H        -2.15038114870579    7.05603906855603    6.35387611637356
H        -1.20802109008414    3.22996180677276    6.53049793625209
H        -1.27177739578234    3.20736416323746    8.32249967243592
H         1.17007547138315    2.54375849283918    6.57720600701746
H         2.51947386212001    2.88047769180705    8.59793431549996
H        -0.14119969124061    2.76855845917557   10.09502680692669
H        -0.49799286324401    3.72866180877280   12.41138604713182
H        -0.75684059083233    2.00110582056128   12.11889920753885
H        -0.31290391019295    2.56579468353896   13.72753049467731
H         1.85237203746477    4.50456983920428   13.16636647087270
H         2.04272701920236    3.16478683580612   14.30305364148159
H         3.21415453423830    3.39876963775427   12.99449217206240
H         1.17938788675533    0.43811941544009   11.93227091499677
H         2.80014049791415    0.96889302933652   12.38150761413780
H         1.54402724529197    0.82040008476629   13.62292566301465

