113
CSD_code = PIYTAU | q = 0 | S = 0 | Stoichiometry = C41H61BN9Y | MND = 6
Y         8.14584776204951    7.14429513777157   12.04869892155283
N        10.07694421600047    7.50124725200820   13.60033381693303
N         9.74829993774138    8.01708115473110   14.80649854810893
N         7.77766703048385    5.81423163103258   14.03035133566241
N         7.88404529357183    6.39989995749015   15.24356468284992
N         7.27470759847977    8.91448303076578   13.38794053398529
N         7.37800950788789    8.83046836158710   14.73419948856710
N         6.30603272233732    6.54851811060271   11.04429280262548
H         6.62958486540971    6.27613959941168   10.11316010713632
N         9.37697336963585    8.28966772607078   10.39897159648469
N         9.38084184902209    6.07021788156759   10.32665779049771
B         8.35102376963907    7.85606901096391   15.43177281375283
C        12.14071623313449    7.23824260723204   12.23913546128031
H        11.50115089627679    6.62778707321906   11.60947108552723
H        13.00361711118038    6.65357323132478   12.55751448892346
H        12.50589061148653    8.08680327092904   11.66064314833156
C        11.38207498111108    7.70912328261579   13.42914756386420
C        11.90180095263266    8.39034905892492   14.53290867559407
H        12.91483278029570    8.70399427024548   14.68551846205058
C        10.83133175880452    8.56882274576697   15.38694316138842
C        10.82177962022648    9.25532759306175   16.70586246426947
H        10.09882161456575   10.06904070045559   16.70794685624269
H        11.80958269476060    9.66104850059997   16.90806832866069
H        10.55750878165911    8.56356790773779   17.50384286742887
C         7.07084988327670    3.63613440489597   13.09783387128897
H         6.82341415708211    4.21572434743005   12.20743172086977
H         6.23813691838536    2.98246181721918   13.34842927968009
H         7.94084605806094    3.01125919817457   12.89315766203548
C         7.34148064026661    4.56870667578364   14.22457181479369
C         7.17135233956754    4.34182092608410   15.59050840248285
H         6.83409061767065    3.44199298259876   16.06392393506686
C         7.52590929983848    5.52860307850019   16.20554287126406
C         7.52153126172532    5.82834829188300   17.66195056606796
H         8.51911344991098    6.09680555113504   18.00515179429611
H         7.18574407709967    4.95081824678112   18.20854758651938
H         6.85266316826419    6.65724719281698   17.88497476555202
C         6.08137516902371   10.32006984236249   11.72810041034268
H         6.56430255751004    9.65348933083236   11.01263988343681
H         6.39134012796318   11.34896737571785   11.54088358783625
H         5.00334454659770   10.25853849467907   11.58532140766702
C         6.43872949726221    9.91784416533622   13.11418540545017
C         5.99741439710436   10.49525391801097   14.30625719083014
H         5.31918964114331   11.31693031088317   14.41683949027877
C         6.61382741382188    9.77515451269923   15.31297824962122
C         6.46454203449488    9.95766691109075   16.78086388130056
H         6.07329856708787    9.05136069225972   17.23927384775680
H         5.77335999693197   10.77385647098966   16.97375619111364
H         7.42025404433285   10.18815743931024   17.24743456134661
C         5.16330356051705    7.29396100324212   10.88269718988407
C         4.25020585285111    7.43798089460190   11.96239101355671
C         3.07911181149038    8.14936789291099   11.78865409979977
H         2.38483634823527    8.24449568165422   12.61009827273245
C         2.75891452773087    8.72747707647249   10.57200952315732
H         1.83386672353052    9.27249787112224   10.45128103708058
C         3.62882171255157    8.58171195777811    9.50672380532344
H         3.36292823394441    9.02057938409983    8.55695305075941
C         4.82180180299937    7.89446057586972    9.63771224040232
C         4.51503430736411    6.71073861168549   13.26084930032816
H         5.60011892332064    6.60791452096795   13.36492974717765
C         3.98453717178869    7.42585481905075   14.50359487148647
H         4.26160039206727    8.47697391619426   14.49430232071717
H         4.40462133713550    6.96546663357471   15.39701679697142
H         2.90112929286187    7.35231454701021   14.56982193680931
C         3.90953631478337    5.30591138495877   13.17022838792539
H         4.30186243166420    4.78947211666014   12.29865915834610
H         2.82710969192778    5.37068609711187   13.07315565948935
H         4.14662852679528    4.72824583807966   14.06191223014882
C         5.75858545304375    7.76453424904896    8.45140857732679
H         6.79265856521962    7.71848083847380    8.82587153472289
C         5.44442400747409    6.47229485756415    7.68680456610950
H         5.50123166334623    5.60436861532917    8.34123996869179
H         6.13945940473002    6.33377646981966    6.86052909147621
H         4.43444260480968    6.52050406878205    7.28360779221200
C         5.70018753430976    8.95509753071462    7.49236751027626
H         5.75740075438457    9.89365431105076    8.03873324557977
H         4.78405833571633    8.94807489354609    6.90649094778408
H         6.53981146581499    8.90923129645659    6.80048861977213
C         9.86202229950543    7.19854680504122    9.82439369900857
C        10.92137667150335    7.25446461623306    8.73296527598108
H        11.72732247663790    7.91708445485981    9.05649058708974
H        11.36466263649033    6.26455560563697    8.60364449495385
C        10.38309206201989    7.71671906943950    7.40852258038622
C        11.02227726657444    8.71614214915136    6.68535817715246
H        11.91102881494522    9.18347622503064    7.08649471888843
C        10.53236912970135    9.12268841402023    5.45676432055656
H        11.03935955339240    9.90309004533947    4.90808214031689
C         9.39729225146012    8.53102863671402    4.93074316920994
H         9.01353829388949    8.84720462544485    3.97204336117481
C         8.75649835917865    7.52972291786766    5.64116437026549
H         7.87409770553839    7.05997793634860    5.23043682992891
C         9.24515138828478    7.12698228638288    6.87043521891350
H         8.74059651172633    6.35217849716389    7.42780842706531
C         9.83149716245639    9.62374546899280   10.05572341154167
H        10.83838158940028    9.60479461241374    9.61211073083033
C         9.90988598290865   10.46271907012678   11.33603639903772
H        10.63569164151914   10.03435235805873   12.02488214374656
H         8.93965037338737   10.48663805183783   11.82889289733575
H        10.21286405622024   11.48124310327350   11.10009001315821
C         8.89433246663454   10.29279745012427    9.04132344866582
H         8.82059411113037    9.69292829292641    8.13846079836326
H         9.27414564422527   11.27653914216496    8.77342280721822
H         7.89982046736077   10.40392236453038    9.46303879739651
C         9.71220913797181    4.73870206830054    9.86515539963858
H        10.40536449514259    4.74094508172904    9.00967922556649
C        10.37480888585075    3.96617388322065   11.01511098586158
H        11.39391785340330    4.31346169442930   11.17273531773172
H        10.40468520101179    2.90086877498570   10.79664626425466
H         9.80921822360728    4.13364738819017   11.93309265759765
C         8.43947511051818    4.01526740956324    9.40533530522639
H         7.98970450409136    4.53632768337209    8.56283630696627
H         7.71584057161958    3.97992333003918   10.21550369977000
H         8.67541173417223    3.00000959295669    9.09281850861501
H         8.40119079156278    8.10489166686290   16.58212163587963

