45
CSD_code = PIYTOI | q = 0 | S = 0 | Stoichiometry = C17H22Cl2N2ORu | MND = 9
Ru        3.60796694481252    4.54704917313473    2.43193720134500
Cl        5.90139032022848    5.03284540453859    2.56262085116946
Cl        3.56896683350491    4.56037490154848    4.78368792580265
N         3.49692244843925    6.70194486940348    2.80701229327614
N         3.38788435188019    9.81314573831994   -2.81756421275375
O         1.30089861828485    8.97533044860880   -2.73017464889973
C         5.10473385521295    3.56413121351671   -0.52333036072379
H         5.35691896055074    2.56950708077973   -0.88781102200415
H         5.96671782101390    3.95154438106154    0.02419158752425
H         4.90999841803897    4.22009223249309   -1.36850191440288
C         3.92555665101815    3.50812875646320    0.39521333253845
C         3.88242833507974    2.54283875696486    1.44824188058090
H         4.68997244326215    1.82260958764490    1.53855321184353
C         2.77152648762875    2.46196327833002    2.30180897865248
H         2.73097375211217    1.68148006459480    3.05572500028993
C         1.66694672726627    3.34997753976106    2.16350632605674
C         1.74150556443326    4.32558132153560    1.15391929320535
H         0.90305591198833    4.99047294774281    0.98181288259956
C         2.84475328562351    4.38747079701634    0.26220901906332
H         2.82573776268390    5.10092281327971   -0.55389883068965
C         0.44444823896692    3.20479396760324    3.03659488052972
H         0.66417344757817    2.45711599686057    3.80587568293789
C        -0.73734405466542    2.70770458306999    2.19804773123687
H        -1.00505994454164    3.43666848738961    1.43618212286868
H        -1.60177323854335    2.54490517509018    2.83673765574141
H        -0.49088815622322    1.76940881501966    1.70505552107256
C         0.11005218613829    4.51831327129606    3.74553321365040
H         0.97937242433299    4.85674960423259    4.30812519228846
H        -0.71294059849606    4.36633157365218    4.43904996185996
H        -0.18210486438566    5.28634220473705    3.03263820418508
C         3.23832322956389    7.36347708974297    1.58845491402947
C         4.27174906292267    7.52189090063801    0.66472199126545
H         5.25773763263706    7.15684382071599    0.91701754283370
C         4.01943797547059    8.09821813613214   -0.56369967450920
H         4.82308071105839    8.18310278120255   -1.28011381212568
C         2.73416884106608    8.52666816350347   -0.89025938773217
C         1.70637608053490    8.36240629930147    0.03429663866173
H         0.71337241554986    8.68683736534184   -0.23717086426266
C         1.95421880453334    7.79907730354918    1.27017479658617
H         1.15588704900992    7.68392605292136    1.98971372813793
C         2.39098378100764    9.11703135511708   -2.21712435624859
H         2.80196389294139    6.89033964631989    3.53542020633794
H         4.44267937358416    6.89528024461555    3.16988654372017
H         3.18708622864406   10.26694760289647   -3.69340981620991
H         4.23954398818026   10.04690825231918   -2.34070741135017

