98
CSD_code = PIYVOL | q = 0 | S = 0 | Stoichiometry = C45H44O4P2PtSe2 | MND = 4
Pt       14.21564258948610   -2.40236136825521    7.23070694405769
Se       11.84236974819474   -2.64947339409282    6.75380917793535
Se       14.71499873647918   -2.40521999524601    4.81071053546528
P        13.64103538498565   -2.22514142738312    9.47202974731611
P        16.51712898445568   -2.23551762019870    7.55997412644054
O        10.94541264837817    0.22078323815811    4.75093585320330
O         9.71464162918861   -1.21812376648298    3.55805164490295
O        11.74637841474081   -3.44771317761803    2.13247501175856
O        11.97872345132184   -1.26611830468720    1.65907936672424
C        11.65852378135484   -3.03448747764774    4.84706826809853
H        12.33828361178575   -3.85153684506987    4.59002755181814
H        10.63143956460643   -3.37639923701789    4.69770114702265
C        11.94739148835281   -1.83907897614844    3.93765095577657
C        13.29390475365837   -1.17496599099748    4.22769657755824
H        13.15386035458067   -0.43447707758467    5.02109939036390
H        13.66498252025206   -0.66399820269854    3.33736473036744
C        10.84002290830294   -0.80848932479540    4.14076408219914
C         8.57697897181810   -0.36601612202740    3.70613664779765
H         8.83056316025644    0.62815143508456    3.32040703227958
H         8.34897360008514   -0.26954979865848    4.77364723908153
C         7.41898960681862   -0.98116935818876    2.94420893899599
H         6.53802779474935   -0.35439058086696    3.04914090936705
H         7.20108668652307   -1.97149715065405    3.33479330100397
H         7.66899986466813   -1.07224839163685    1.89043302399610
C        11.87599152922246   -2.30905825096965    2.49001911490085
C        11.87935229448099   -1.54503966666076    0.26190045341415
H        12.38491033649092   -2.49386520907545    0.05482693956372
H        12.40640604589917   -0.72527610540667   -0.23104335798745
C        10.42476610058489   -1.61240481671636   -0.17951029432489
H        10.37414002849049   -1.78628971920698   -1.25071098538724
H         9.91893786578282   -0.67855634211613    0.05527404261665
H         9.92229741516682   -2.42690552565713    0.33678741638658
C        11.90697541815860   -2.02884591629134    9.98011017135257
C        11.10256881718833   -3.16748483096171    9.98868653115153
H        11.53476769239525   -4.12528110788692    9.73092898266631
C         9.76550692847644   -3.06705438420244   10.32111237296012
H         9.14480327701530   -3.95078321172983   10.32528054153936
C         9.22040870229768   -1.83315019716511   10.63835206076088
H         8.17400306783145   -1.75460173433724   10.89432930523071
C        10.01431155207755   -0.69879297866162   10.61785425857431
H         9.58771526379422    0.26464079603510   10.85650530185829
C        11.35382369265760   -0.79033570539419   10.28454019804840
H        11.96740043144384    0.09926416708668   10.26130635308635
C        14.14628127275290   -3.63199856987667   10.50174012360358
C        13.84913286146098   -3.72590062325913   11.85796998933076
H        13.28625647826997   -2.94087648253783   12.34412342515120
C        14.24679359275470   -4.84241003703270   12.56957732069418
H        14.02531330576562   -4.91351568313606   13.62462455461013
C        14.91307088041595   -5.87776648777376   11.93191089106254
H        15.21531175052186   -6.74864846359110   12.49463260483923
C        15.16818404379429   -5.80813829157330   10.57283832808230
H        15.65899085697581   -6.62824952873493   10.07007166516314
C        14.78515420043280   -4.68635051610774    9.86197542528334
H        14.95413757412272   -4.61357059694735    8.79070589459091
C        14.40594668876684   -0.71884972787802   10.14330610597402
C        14.89306387351170   -0.54724164913693   11.43183396523246
H        14.86545359040950   -1.36161746585070   12.13953055181983
C        15.44473961467675    0.66943062496407   11.79710697972508
H        15.82466379358186    0.80420448127456   12.79953527055562
C        15.51896866889146    1.71015501962324   10.88557608528417
H        15.95881183864197    2.65218945591787   11.17809126572194
C        15.03191369303826    1.54344082681547    9.59812253182280
H        15.09101026249322    2.35209628527418    8.88491378396581
C        14.47499214193443    0.33360007719348    9.23248251336083
H        14.07444985954716    0.18083399747705    8.23258875938803
C        17.37247635784126   -3.37865136753082    6.42767334881981
C        18.63347632008441   -3.13072963494110    5.90076514426871
H        19.14285202917501   -2.20412024871915    6.12134500525286
C        19.22750117690719   -4.06547654663914    5.07143988435033
H        20.20414428311663   -3.86568109475383    4.65492060328144
C        18.57409131391209   -5.24814972447572    4.76687596882163
H        19.04275660451952   -5.97065561667649    4.11515106584307
C        17.31345547691179   -5.49688086702560    5.28434528403306
H        16.79498745920880   -6.41100225070392    5.03624386649513
C        16.71361772823542   -4.56464375321607    6.10938860160498
H        15.71286580965650   -4.73692119322418    6.49760575219044
C        17.21658310064274   -0.59950462487746    7.18898084865771
C        18.49897363937881   -0.22368009868795    7.58197342795732
H        19.11700358900331   -0.90895997413400    8.14616910992785
C        18.97713907338608    1.03370760808577    7.26183254430149
H        19.97328961741046    1.32067605015268    7.56675128277745
C        18.18602256207270    1.92430533092358    6.55347423079118
H        18.56643130233835    2.90515906461531    6.30860867198717
C        16.90998770143525    1.55567547417297    6.16161578321263
H        16.29102271677581    2.24655639351272    5.60844566621280
C        16.42907002885253    0.29957026076480    6.47977033242933
H        15.43467848876565   -0.00124720069488    6.17206349484219
C        17.31710043949240   -2.65424771884328    9.14549292166165
C        17.46013428524065   -1.68524474016627   10.13445674979693
H        17.18160057528282   -0.66264735928786    9.92439779240202
C        17.97761103390615   -2.02215624503162   11.37084491839174
H        18.08677148142225   -1.26076237442542   12.12932113553437
C        18.35628295277650   -3.32788103440598   11.63552251293147
H        18.75665554363720   -3.59012768733491   12.60351337679722
C        18.23063486869654   -4.29370001670018   10.65119508597876
H        18.53786198240687   -5.31003580375944   10.84924845556413
C        17.71163156188726   -3.96184072098153    9.41381084088009
H        17.62220133822281   -4.71645927622365    8.64503664713573

