39
CSD_code = PIYZAA | q = 0 | S = 0 | Stoichiometry = C12H21Br2FeN2P | MND = 4
Fe        1.49156819482262    2.81011193817365    7.55560533375577
P        -0.59363540446212    3.30512229951108    7.50731684027187
Br        2.62987004963187    4.73779500646359    7.56551218362779
Br        1.62587123495442    0.76622011790345    6.66481132229470
N         1.23494465036140    2.60426408773380    9.40217461236108
N        -0.89102360396470    3.47740804431076    9.19810746044478
C         0.09576669599145    2.99013330088234   10.02254125625584
C        -0.03116546752352    2.89135368407290   11.40735347063113
H        -0.93956070935169    3.20326968689207   11.89339994830521
C         1.01947925560648    2.39232607283339   12.15546216775260
H         0.93121135175539    2.31423375135538   13.22731306007735
C         2.18270774057637    1.99523505737467   11.50856396899267
H         3.02348264998380    1.59969171226057   12.05284400477837
C         2.24150318887024    2.12357515285683   10.13907999729913
H         3.13108926800612    1.83224029878389    9.58808298019791
C        -1.19425095253587    4.91789458895273    6.77247471440901
H        -2.27908766430330    4.84540706766866    6.61670472943382
C        -0.86895573453477    6.11778170788931    7.65555366428408
H         0.18805541374235    6.12462008882258    7.91052218218491
H        -1.44628515731462    6.12088965979358    8.57546660085556
H        -1.08830462818539    7.03608059059480    7.11369056520017
C        -0.50004049921517    5.07196048737110    5.41748818409126
H        -0.94279673619631    5.89071839604159    4.85353768534042
H        -0.57297328954773    4.16340173099126    4.82187233911714
H         0.55379022405902    5.29664345007317    5.56729311833526
C        -1.98526416282108    2.13411134326176    7.04758794924078
H        -2.92435101488733    2.63413440494017    7.32285822859288
C        -1.85522120954736    0.83895742978377    7.84407690004075
H        -2.73497973956446    0.21717544195178    7.68787852205258
H        -1.75750703260254    1.02931168324327    8.91180162655384
H        -0.98431673209868    0.27806654065505    7.51626220833148
C        -1.99626898956422    1.83763165312217    5.55205794125852
H        -1.02513994974882    1.46351665582397    5.23359950233121
H        -2.24694248681752    2.72169413526087    4.97028801794084
H        -2.73738028212356    1.07043337489716    5.33457420312906
C        -2.17736824732905    3.84492146951889    9.75495914810140
H        -2.66995328231720    2.99203138219654   10.23172077661180
H        -2.81469509605566    4.20794144323645    8.95210295433992
H        -2.06207184574870    4.64189506250108   10.49345963117637

