67
CSD_code = PIZCAD | q = 1 | S = 0 | Stoichiometry = C31H31ClO2PRu(1+) | MND = 10
Ru        1.80158792751300   13.12888110308639    3.66075714382744
Cl       -0.48506987872501   13.63527275027847    3.85634788262886
P         1.08208957900301   12.02166162943290    5.66082077891674
O         0.93664888762713   16.02882197164884    6.15810316157036
O         2.16383505833890   14.23387069232850    6.79062298799303
C         2.43155355835196   14.96037130963760    4.62260862753424
C         1.99652751207010   15.42884823361928    3.33342675577955
C         2.84380124784187   14.82376764259504    2.38360911501648
C         3.84812887014047   14.05565735139044    3.04838199622054
C         3.59563651146192   14.13447302680465    4.44186756531467
C         0.93853584548565   16.43455344151509    3.06795012342646
C         5.07657691577159   13.50176155048818    2.40918648927782
C         1.76411847401267   15.19556819873335    5.91632453004730
C         1.17948319226901   13.84017962311902    7.73997610377565
C         0.17466959847181   12.98645594232241    6.96745228402083
C        -0.07889968613415   10.65319900465142    5.35476328690118
C         0.41530883812865    9.35911163686491    5.19201038963955
C        -0.44829921079490    8.30891067500494    4.94030924734551
C        -1.81165403108746    8.53784684305748    4.84380199320344
C        -2.30900620736744    9.82047039476680    5.00863513471082
C        -1.45139833907277   10.87628695324669    5.26311559728893
C         2.37496683244326   11.19142003942783    6.63985807413153
C         2.00546906415738   10.55471277212678    7.82387487240882
C         2.95946838510250    9.92005145574385    8.59654802170316
C         4.28690841874034    9.90831094512230    8.19674830370492
C         4.65512354937685   10.52196978713898    7.01185115036123
C         3.70234260041103   11.15925581659635    6.23552436143778
C         2.55897453618089   11.19300180433141    2.99061060548519
C         1.26704420028697   11.35513418615164    2.43033606353336
C         1.08089170886870   12.34062944369057    1.45388785036934
C        -0.17400527882894   12.73500442405127    0.87015078421035
C        -0.17052689398174   13.70120495343451   -0.14966936265573
C        -1.34845541696967   14.13721983307686   -0.71651573460593
C        -2.56075823876862   13.62327913053351   -0.27724718850578
C        -2.58413324385192   12.66502650512366    0.72570681613600
C        -1.40983329529922   12.22250240022142    1.29829959079554
H         0.19720489616191   16.44201584945422    3.86483127698410
H         0.44912031975549   16.25410356977489    2.11208450886711
H         1.40010395945256   17.42374147777189    3.03898180960742
H         4.88899169097712   13.16298952402097    1.39166061476627
H         5.49932594045915   12.68577271446579    2.99197920103587
H         5.82486883275784   14.29531463538844    2.35795746637220
H         1.71410128767909   13.26650303773970    8.49825329056271
H         0.70853289822283   14.71824026574830    8.19152517533363
H        -0.56046294153783   13.62481672051095    6.47122618639297
H        -0.35230317582910   12.28314829140908    7.61530969656239
H         1.47616089408997    9.17118315759875    5.28192492351372
H        -0.05634835407279    7.31038579385893    4.82205546276802
H        -2.48425570899971    7.71777563178890    4.64602899666441
H        -3.37086873974618   10.00150024692866    4.94151578579402
H        -1.84918093002174   11.87213643298937    5.37999402195190
H         0.96992993464263   10.53906020180943    8.13256694089718
H         2.66617166252186    9.43085550581288    9.51273180390474
H         5.02939800343964    9.41520907982743    8.80444966249084
H         5.68554110878697   10.50286385886021    6.69061284651198
H         3.98595342148933   11.62537637860173    5.30272442048441
H         3.41588117569673   11.36656135224410    2.34152017391311
H         2.69762804677324   10.35549606409823    3.66719654411360
H         0.43875340320943   10.73222951956173    2.76433444383601
H         1.96828747505713   12.68165608703682    0.91924423194345
H         0.77165544642213   14.10487328665074   -0.49377987696358
H        -1.32796005245594   14.88010366096170   -1.49910029330735
H        -3.48365640408515   13.96897381701149   -0.71638969425073
H        -3.52716957126438   12.26549964238578    1.06527970564585
H        -1.44926791761166   11.48054592599520    2.08081916465119
H         2.82673491635424   15.03340874771836    1.32390046605860
H         4.26987689050628   13.84556605060286    5.23452563992756

