74
CSD_code = PIZCEH | q = 1 | S = 0 | Stoichiometry = C36H33ClO2PRu(1+) | MND = 10
Ru        9.35341220548910    9.84178848637191    0.92755721831760
Cl        8.36376754583704   10.93393158857098    2.76425528199287
P         7.06462531377870   10.14770148179759    0.30267305065411
O         7.32774949160912    7.52544900608002    3.36560323384529
O         6.90239073764266    7.57342780257077    1.14145329199640
C         9.09306948412781    7.87081324528676    1.78502053219912
C        10.17127808742625    8.39614389944437    2.57967258619949
C        11.23952038963977    8.63037431162259    1.69628537178779
C        10.90007675606908    8.17454118517845    0.37831506083015
C         9.55277277432374    7.71250632741385    0.43471345464775
C        10.18400143442644    8.55383901118772    4.05452494359084
C        11.81011084381967    8.06978728355363   -0.75804392564916
C        13.05006381230824    8.71825246509527   -0.75179430844040
C        13.91194088986313    8.60490631879876   -1.82497966369506
C        13.55691746210907    7.84416510813374   -2.92727835323260
C        12.33178526228588    7.19664871779957   -2.94857860812061
C        11.46479653564391    7.30793536419423   -1.87944802875111
C         7.71317239754610    7.60824759680106    2.23343722188359
C         5.58401644574006    8.06289895738687    1.35832969024716
C         5.71394147278322    9.58258880061760    1.45099672764796
C         6.60967461940799   11.89269982210329    0.05472780813792
C         6.18007087560371   12.68459249799992    1.11786113554584
C         5.86033758211678   14.01415615090381    0.90580981834892
C         5.96509995751607   14.56653444350517   -0.36048390603690
C         6.38709780754490   13.78252092932180   -1.42243993328087
C         6.71010055445676   12.45355241653446   -1.21826491743161
C         6.55247087293181    9.40454697231046   -1.28036602525351
C         5.22066457701138    9.53046037911582   -1.67301573046322
C         4.79308710755301    8.97476996232173   -2.86399943337235
C         5.68602641797593    8.29373404473883   -3.67691159437962
C         7.01377776011475    8.18413065524017   -3.30111588914195
C         7.44607224122287    8.73909540517384   -2.10869999099289
C         9.89214417674540   10.81893146391998   -0.95693192601422
C         9.90604577251862   11.80938204701110    0.05539744423153
C        10.88373804838762   11.72721323386271    1.05420806214259
C        10.98036941774362   12.56661100246393    2.22084138585731
C        10.00410057965558   13.51791302392998    2.55838897968489
C        10.13411465331427   14.27399795772364    3.70474533728252
C        11.22805514758459   14.10265900023448    4.54043138369463
C        12.20423480385731   13.16939355598491    4.22089441902870
C        12.08146913419616   12.40916365253786    3.07789502322814
H        12.22040862854023    8.94867045731502    2.01550105178408
H         9.02863338083225    7.12811580349307   -0.30558730965364
H         9.18859970275103    8.77968114402240    4.43318908711854
H        10.88002297257494    9.33080819727442    4.36544191526909
H        10.49455864801484    7.60729079605131    4.50151590284903
H        13.34744023576039    9.31729206320567    0.09622618669720
H        14.86504499953027    9.11027543220247   -1.80015323107767
H        14.23301645377842    7.75342068468117   -3.76269475300766
H        12.05280949866857    6.59765445536086   -3.80160774445884
H        10.52184997392311    6.78445691644230   -1.90801928106010
H         5.00600257893722    7.74863987955421    0.48820035143629
H         5.15984695210867    7.63242920855007    2.27022970627544
H         5.98901935880420    9.87643911662040    2.46709534544170
H         4.78830104670274   10.09262201207313    1.17688624833174
H         6.10522599907836   12.26837501584573    2.11019970073336
H         5.52578843199682   14.61982143687238    1.73411171755294
H         5.71439376372184   15.60357594516238   -0.52097658467666
H         6.46287198628889   14.20566563610806   -2.41235251159861
H         7.02429574824829   11.84314131926103   -2.05347714238348
H         4.52193546831083   10.07865001922178   -1.05727210092761
H         3.76026600083851    9.07551923171204   -3.16046075383138
H         5.34778301091743    7.85794105472560   -4.60400389927563
H         7.71592923940056    7.66859351940109   -3.93884173328403
H         8.48699244060955    8.66925643069863   -1.82662790223387
H        10.84732254004659   10.40821954464990   -1.28488803045056
H         9.18579018727351   10.95849427790078   -1.76906673597171
H         9.16093006298362   12.60344334461466    0.06137318253645
H        11.78368242755121   11.16026606969093    0.81391867905952
H         9.14223962888156   13.66095463684110    1.92484371616962
H         9.37560572409952   14.99981464635356    3.95403359042173
H        11.32051808597596   14.69382731131564    5.43823113301244
H        13.05747737468134   13.03628399933718    4.86823698569912
H        12.84383599822245   11.68235481859428    2.83350898471340

