58
CSD_code = PIZGIQ | q = 0 | S = 0 | Stoichiometry = C21H28Cl2N4ORuS | MND = 6
Ru        2.31531178302257    1.66794885722068    2.87116751419550
Cl        0.36891553654073    2.63548024584350    1.89364177092375
S         3.11366884419182    3.79758329939403    2.86385288493296
N         1.49284681356150    1.71770359056240    4.70786728783320
O         2.54015443742650    4.61454209620829    3.92046926988013
C         1.87309975241903    2.42227279585860    5.76955475590455
H         2.58664156123526    3.21397715519891    5.58653793745035
Cl        4.34224154422354    0.92362105174445    3.85910153737500
N         1.40123122294509   -0.22138836793722    2.81264857353083
C         1.37059081446613    2.19391191383891    7.03979260796399
H         1.71071371098695    2.79887938897952    7.86445897266542
N         3.03071622992458    1.09270943533689    1.10457275478053
C         0.43685658929286    1.18921210244247    7.22518721531437
H         0.02257766875370    0.98367304084129    8.20005068076624
N         3.20381410892101   -3.78343104495811    1.92979497021976
C         0.04724675393846    0.44497612462640    6.12041278843443
H        -0.67572112047242   -0.35091534916913    6.21569938738151
C         0.59225911710723    0.73261264409673    4.88192600525003
C         0.19984957951457   -0.01649273669236    3.63293101171005
H        -0.30838450905708   -0.95643447503165    3.87345894518900
H        -0.48413559367874    0.63193989863247    3.06933835365359
C         1.13851254555924   -0.38379476685770    1.37434267487414
H         0.33601483537166    0.31369711172894    1.10046788743952
H         0.84214896780361   -1.40428435364725    1.10828102929064
C         2.37240419133031    0.02420729506654    0.61118722771354
C         2.79675592179062   -0.64577751680766   -0.52101397093396
H         2.23842583586161   -1.49518848169347   -0.88075669541273
C         3.94801891962074   -0.22656501800493   -1.17265616909603
H         4.29419547255222   -0.73441606186045   -2.05826673943178
C         4.15477250044263    1.46774670332566    0.49341584430345
H         4.69132364524352    2.28888351590237    0.94825589929570
C         2.23844902676138   -1.31038734992444    3.33152176109204
H         2.59494347783536   -1.02012432415700    4.32472908682463
H         3.11391543036357   -1.36767651535741    2.67663051768418
C         1.57652227556331   -2.69284217966909    3.41420453599095
H         1.08386050057498   -2.82829014981753    4.37816340095889
H         0.82740254465580   -2.81644276375470    2.62989421469094
C         2.63472662551652   -3.79466687030311    3.24798103039973
H         3.43514298246180   -3.64465878426443    3.97641606232748
H         2.17437276059083   -4.77135609367036    3.43065277984468
C         2.59091208445856   -4.25276785405542    0.80995888053528
H         1.63763935175220   -4.74270915381033    0.86332644113243
C         3.39777642301524   -4.00729836722279   -0.26681431387837
H         3.19619981793592   -4.27267098850821   -1.28630552435979
C         4.54605505867000   -3.35317791741328    0.22055113685996
H         5.38624557243507   -3.02032886389069   -0.35566464701950
C         4.39250102970380   -3.22717745577863    1.57374036939491
H         5.04711567428216   -2.79475003966891    2.30498756088023
C         2.82403452457399    4.73301422824878    1.32272198850964
H         3.26666314060998    5.71545909680900    1.43769928684455
H         1.74878711147521    4.81770109928403    1.20289284748916
H         3.25024256583093    4.19193912441582    0.48524541123571
C         4.91811050656140    4.09347634921812    2.98452725685080
H         5.04104551370772    5.04354852214641    3.49098425567531
H         5.36776291310897    4.11814971554078    1.99957959429127
H         5.34279212455358    3.28779560122716    3.57628389528101
C         4.64598826600368    0.84372064876928   -0.63862408812238
H         5.56132501616686    1.19403119141515   -1.08830595480992

