115
CSD_code = PIZGEN | q = 0 | S = 0 | Stoichiometry = C62H26F20FeN6 | MND = 6
Fe       -3.09677491415090    9.33083904309740   13.09899331956705
F        -5.70094906428183   13.63222637350320   10.93832314016703
F        -6.97862936352617   14.99782649049155    8.96651905868145
F        -7.42111925195798   13.80249578436938    6.55307249433240
F        -6.58235964329238   11.24243683143978    6.13283051370248
F        -5.29704459513372    9.89544164560168    8.10362998656879
F        -1.02256004023782   14.26073075926263   13.73526378133599
F         0.88444332030512   16.18548294948353   13.68767081462646
F         3.42232414955897   15.57195376680450   12.89313411592603
F         4.02649896902920   13.01985282351162   12.14072310099865
F         2.11450271011331   11.10752035259250   12.17462634358687
F        -2.05085383712738    7.20849583995821   18.08985793135734
F        -0.64564812081128    5.68845304694642   19.83831551895691
F         1.58374775992323    4.35481794905148   19.00132976725689
F         2.38820930025886    4.55834633195898   16.40238284896249
F         0.97224211793357    6.06886979822085   14.65934404986067
F        -7.88611578888766    8.86038847839968   15.19224298111211
F       -10.22803477339071    7.73009104399882   15.94406394858493
F       -10.75038765500000    5.12327432437886   15.31477500672058
F        -8.91010638793357    3.67446895822942   13.91525663946902
F        -6.58353252209258    4.81873146021637   13.14462035904765
N        -4.94861652805751    9.26665329113032   12.33215641073567
N        -2.71384921716769   10.95518394745679   12.00646962945441
N        -1.32107961215802    9.51624497565754   14.00834994308013
N        -3.52338576240807    7.75975977897881   14.25832545465382
N        -3.97651296930459   10.57964625534344   14.59812018441789
N        -5.49358209403768   11.96909945504322   15.36794703604404
C        -5.44548102108017   11.74232673515721    9.55753879887204
C        -5.89326196649951   13.04726258358386    9.74861968832520
C        -6.55696374611029   13.75020809069547    8.75030698854329
C        -6.78757276943900   13.14001036207718    7.52011223049351
C        -6.35908305003843   11.83252497652322    7.30816390555741
C        -5.69883894773375   11.14867337295426    8.32431244806898
C         0.49559211713950   12.63270920235165   12.95981060419655
C         0.21350686233887   13.94553260418446   13.33387578998619
C         1.18593618668947   14.93893545952848   13.31747676192787
C         2.48175351497066   14.62787989174248   12.91487938873424
C         2.78816879626607   13.32460047210619   12.53420626195361
C         1.79936341742783   12.34655541651293   12.56052042632125
C        -0.58979847986590    6.65813964508858   16.32306262148889
C        -0.97263605159464    6.54389716786780   17.65812708934367
C        -0.25292546965847    5.77490872626679   18.56549504026639
C         0.88653607826843    5.09684944807401   18.14148697885533
C         1.29541846721337    5.20321926395252   16.81517518172654
C         0.56066013128383    5.98056698966480   15.92578067899392
C        -7.16728975606107    6.86543990568531   14.15904137217300
C        -8.12825076653364    7.58295789605984   14.86852113464087
C        -9.33226329358550    7.01187278922959   15.26204326261582
C        -9.59987601804477    5.68342484100435   14.94331676408432
C        -8.65829096846180    4.94594282880355   14.23134105363651
C        -7.46031328143945    5.54039121466245   13.84678416173895
C        -2.33960612499400    8.24215313329844   11.82419348112773
C        -1.64617422769159    8.78663168826257   10.67087973792305
C        -0.32168577654993    9.21833022801014   10.71933670573977
H         0.23981556946955    9.11560730094491   11.63446760566278
C         0.27220553751671    9.77648258677837    9.60303080290414
H         1.29991771919847   10.10324424279347    9.65934778360668
C        -0.44010974092339    9.91621368837169    8.42418935918012
H         0.02522413468688   10.36011309157270    7.55692406872155
C        -1.75086515880284    9.47203223503813    8.36174662634893
H        -2.31277330225674    9.56256688335364    7.44373530561054
C        -2.34841033142719    8.90336993765644    9.46890156814486
H        -3.36941543587476    8.55675602970156    9.42035276264490
C        -2.31462033974071    6.80032268504508   11.92532086042831
C        -1.10134174187091    6.14816178639910   12.16807143587898
H        -0.19392735724609    6.72647968366274   12.24547473100070
C        -1.06917688996485    4.78087486243585   12.35751141285785
H        -0.12671807942295    4.29744289132428   12.56831850113568
C        -2.23194147250668    4.03314266103489   12.26550870684601
H        -2.20205852970116    2.96312204321329   12.40636162905608
C        -3.43217495166903    4.66370160657022   11.97849602240916
H        -4.33994485144026    4.08684288919867   11.88894894297901
C        -3.47848570041640    6.03449436055911   11.82164015977358
H        -4.40898648271657    6.52796277560250   11.58942589896436
C        -4.74928828857362   11.60497276093478   14.31271683497739
H        -4.77922569856441   12.10943092368010   13.36807909829355
C        -5.17635411933238   11.12125320876579   16.38643069805574
H        -5.63369752282801   11.19004961511567   17.35142670139363
C        -4.23036471159924   10.26891743823288   15.89832472247948
H        -3.72048288013286    9.46850566023185   16.39405663520184
C        -6.52420938724782   12.97580496062687   15.36549326884214
H        -6.16651566908485   13.84046683281887   14.80010173004423
H        -6.71056600051005   13.28108919784571   16.39748268354701
C        -7.80286582904126   12.42975479821978   14.73499162644878
H        -7.62149751643359   12.14759564670138   13.70059126794794
H        -8.58135674298560   13.18653440360757   14.76017026279433
H        -8.14688574388533   11.55125992336276   15.27494763918949
C        -5.98514035255410    8.51447325640506   12.78064893625672
C        -5.44175497534631   10.02543085274916   11.31972662301270
C        -3.46404418684445   11.45029700882687   10.98604591962082
C        -1.60846056887004   11.73920995202494   12.07189229263358
C        -0.44074891500926   10.54169864243857   13.87831765552275
C        -0.77627893989298    8.65885196573569   14.90776786126459
C        -2.66468351896019    7.08741378065422   15.06831425615594
C        -4.72193826015508    7.13053174920277   14.37738940929476
C        -7.17266844659416    8.80178736947404   12.02852501804755
H        -8.13001339553843    8.33819811883433   12.16862831077832
C        -6.82972706344847    9.73497421544480   11.10771624159139
H        -7.45799360620374   10.19055314467417   10.36671332508974
C        -2.78276354418726   12.54574310092117   10.34646393865795
H        -3.13837791084757   13.08840861163109    9.49232472092045
C        -1.63599603318651   12.73528272714488   11.03136659711971
H        -0.86933761929431   13.46098877098902   10.84199852834039
C         0.67738042347380   10.35180093619863   14.75889500561524
H         1.50278182118874   11.02554834578969   14.88034696851054
C         0.47751677580540    9.16904787247547   15.38616080833511
H         1.10742694112991    8.69859545477927   16.11591185573054
C        -3.32340769011114    5.95498956677314   15.66718946729013
H        -2.86438370240118    5.23236376931143   16.31284952098640
C        -4.61116230047550    6.00473157733072   15.26859052288502
H        -5.40524780400097    5.33662029229559   15.53727987686952
C        -4.73881670174192   11.02150056860251   10.64125124986920
C        -0.56491021169372   11.60169264879070   12.98007386878559
C        -1.36710275778999    7.48209043193315   15.37061085639393
C        -5.90319998347355    7.52412896868409   13.76106007451785

