57
CSD_code = PIZHAI | q = 0 | S = 0 | Stoichiometry = C18H34MoNP3 | MND = 9
Mo        3.02776758351639    0.37532314019234    3.25679959644944
N         1.96085010659358    2.35532436799642    2.90052757494051
P         1.47283377647762   -1.38060228628366    3.02545924672120
P         2.61474099529280    0.48543229512192    5.55940698378142
P         4.79076327755290   -1.15366251470318    3.53931701154433
C         1.82634548720754    1.57433495353279    1.82812413977304
C         3.22695226818722    2.59944132974903    3.32103610424851
C         4.37676510496528    2.14844674718074    2.67202484097136
C         4.23491937665381    1.47020919901489    1.42241018297547
C         5.32005253169170    1.14568141777826    0.58203767076512
C         5.11284955346596    0.53806599064443   -0.62903411245126
C         3.81271193676984    0.27050247024372   -1.07614823157582
C         2.73318125433406    0.61216950638438   -0.30131025909272
C         2.91214955592931    1.19818593025446    0.96386635833253
C        -0.21809268847366   -0.91283465563677    3.53129569921041
H        -0.95273991281121   -1.62556453670951    3.15461056489475
H        -0.42631403296942    0.08188412710820    3.14193882685629
H        -0.26362369995406   -0.87663996829554    4.61761432050458
C         1.13916036028218   -1.86558138675691    1.29165090681808
H         0.47561177816992   -2.72974839083944    1.24780775472262
H         2.07989069176044   -2.09626718798692    0.79392840082205
H         0.67180268148646   -1.02507793170745    0.78385394474320
C         1.54634331259721   -3.06612475293052    3.75546369833998
H         0.61709082661407   -3.59863379931342    3.54879279982061
H         1.69677095146755   -2.99473259026229    4.82985376329583
H         2.38088638506406   -3.60743116863892    3.31215499300851
C         2.12960262887062   -0.88272849145542    6.68202060985234
H         2.03440273897127   -0.50440178169365    7.70054006238629
H         2.88336756749008   -1.66578028894848    6.65042225594899
H         1.17519463036504   -1.29036443699497    6.35563317376551
C         1.29239113924409    1.66901545274266    5.97669180312966
H         1.22543584569501    1.81463071289133    7.05542725129572
H         0.35202569548673    1.27575392342036    5.59553910005332
H         1.48958804273756    2.61512508160578    5.47972569484455
C         4.00948789412068    1.16441082106242    6.52863503489187
H         3.71973531380361    1.35799924734187    7.56161974534630
H         4.34263769157533    2.08773945865811    6.05851764282826
H         4.82701282978293    0.44548855620366    6.50338409798918
C         4.98391917050862   -2.41585177460749    4.86187690512783
H         5.87062453074153   -3.02206601320145    4.67172483856310
H         4.10349043754209   -3.05246833772329    4.89520599639653
H         5.09210103306905   -1.90445190507514    5.81741480765824
C         6.43773518280274   -0.37655857843656    3.69353710364479
H         7.21662476860041   -1.13071327160303    3.81025814973925
H         6.43394186713356    0.28608306153958    4.55753103026295
H         6.63034178083164    0.20964200196793    2.79921463115782
C         5.06404234390900   -2.20009814465822    2.06909024477372
H         5.98955861082861   -2.77032889053997    2.15440757054229
H         5.10679096908943   -1.55113809201857    1.19496035417551
H         4.21877471305332   -2.87780414252258    1.96048788646323
H         1.72720055541337    0.46285828514182   -0.67311487222731
H         5.35718914857902    2.48059569236523    2.99672008981758
H         3.30646769063934    3.29134573415962    4.15839916178070
H         3.66452928216573   -0.18469268630432   -2.04476614303967
H         0.80542293862382    1.44817632334634    1.46728036842297
H         6.32300171419916    1.40917156113912    0.89536003274999
H         5.95479178225444    0.28681061705871   -1.25902740876134

