29
CSD_code = PIZKEP | q = 1 | S = 0 | Stoichiometry = C12H14AuN2(1+) | MND = 2
Au        4.26799315075242    9.82479635700828   -0.00001309497963
N         4.29577648395232    8.30892283572550    1.35359761568277
C         3.89612438334848    8.49818366767181    2.61636058225728
H         3.55159732148541    9.48850447650300    2.86975775841799
C         4.72483987729638    7.08722604137086    1.01830424870037
H         5.04198375931894    6.95121084194659   -0.00372550435612
C         3.91421281253761    7.50087370469093    3.56648187223020
H         3.58119020772796    7.71684249201176    4.56927292743435
C         4.77337135102997    6.03767663415111    1.90999012018572
H         5.13206761262959    5.07618738340532    1.57839987634937
C         4.36377497757971    6.22410783145814    3.22959005601511
C         4.38471588877584    5.11930205227520    4.22126340146979
H         5.10018260405107    4.35128343089188    3.94069164299379
H         3.39739715938637    4.65790967192908    4.26876077609760
H         4.62035415964396    5.49187944082428    5.21505988394266
N         4.24022425950030   11.34067902210025   -1.35361277515796
C         4.63987902981509   11.15142405792915   -2.61637520507732
H         4.98439681196427   10.16110027936417   -2.86977754235370
C         3.81116298236066   12.56237387117735   -1.01831279162086
H         3.49399843729050   12.69837863269512    0.00371181840951
C         4.62180304780569   12.14874329719093   -3.56648757269000
H         4.95483785585250   11.93278323871181   -4.56927669363770
C         3.76264559127798   13.61193444483357   -1.90998874153315
H         3.40394944029142   14.57342121909390   -1.57839138052348
C         4.17225176317699   13.42551168332710   -3.22958704081331
C         4.15133333270253   14.53032761600454   -4.22124658881433
H         3.43586634381279   15.29834661237590   -3.94068125518633
H         5.13865601973676   14.99171255234538   -4.26871821244828
H         3.91571333489647   14.15775661098714   -5.21504818099434

