63
CSD_code = PIZKER | q = 1 | S = 0 | Stoichiometry = C28H31ClOPRu(1+) | MND = 9
C        15.92530568864766   11.61659725344493   14.54597856292209
C        15.70691027517877   12.70570307901907   13.66539625533629
H        16.39133709532304   12.86255030090558   12.83631213600069
C        14.51853310229595   13.47428191507523   13.73479032321895
H        14.34194774699603   14.23464105184035   12.98490141427842
C        13.58716555651756   13.25956808166424   14.75422494585683
C        13.84164358207740   12.20653657125674   15.68291861627631
H        13.09926108915739   11.99278830557228   16.44521862507398
C        14.95409731160392   11.36863168014011   15.55248903228793
H        15.06278687960839   10.50118178051311   16.19265323774709
C        17.06389909138808   10.67050372591913   14.32618808859423
H        17.32152240132191   10.14084268433182   15.24054071070557
H        16.76799392525916    9.93307449427442   13.57782109613941
H        17.94627714936653   11.18859789403877   13.95555326923367
C        17.59117727608071   14.36716613478375   18.60961483308576
C        17.80937573213568   13.81915883026043   19.87108098922532
H        17.91723804141683   12.75128805131070   19.99156181068314
C        17.89970356882640   14.64994726436757   20.97510801797389
H        18.07482989107202   14.22125399406160   21.94995334799714
C        17.77669271327495   16.02258863965321   20.83241893784225
H        17.85280035220521   16.66323320622731   21.69704966617212
C        17.56598039782516   16.57302343439441   19.57714750567730
H        17.48147258088423   17.64263252772843   19.46131705607947
C        17.47262684563543   15.75193747353106   18.46806373834212
H        17.32706790917538   16.17333318583231   17.48087825324478
C        17.61638629057686   11.65889389117279   17.70217750003854
C        16.51705021440226   11.19412508941161   18.42474849910533
H        15.67708438714768   11.86000180596041   18.59214527946097
C        16.50889768083454    9.90612839127493   18.92394340333784
H        15.66207692027440    9.55022200857256   19.49111208154990
C        17.59365392006267    9.07089394009587   18.69573461354980
H        17.58836810842856    8.06473894908732   19.08515784853206
C        18.68192993518289    9.52620420365042   17.96979359426505
H        19.52361853250319    8.87437723536559   17.79264517307428
C        18.69806749031404   10.81836231251683   17.46937836542245
H        19.54767216081405   11.17443624199678   16.90477346409131
C        19.12511337889591   13.69665399032021   16.31448892272579
C        20.27215640816049   13.80168528932232   17.09874610304459
H        20.20169246945810   13.69953664203938   18.17290977133552
C        21.49231719513927   14.04136373136268   16.49493433860921
H        22.38215898645958   14.12529790252090   17.09987573978896
C        21.57337590022373   14.18025492217790   15.11747661039326
H        22.52763370013387   14.37340707063479   14.65232022204129
C        20.43241762873036   14.08049046033481   14.33758243015946
H        20.49768527324270   14.19897809773090   13.26669127770280
C        19.20821457274445   13.83833347156547   14.93416254951988
H        18.30294610520249   13.78023244184626   14.34159645075243
O        14.63124809296826   14.82227566411447   17.41316889588694
H        14.66593018600704   15.70306918758177   16.99260809509018
H        15.09102962619110   14.91091272818689   18.26192153822386
P        17.52318724766869   13.36117952622469   17.08806096969098
Ru       15.64060503285153   13.57746405399349   15.76229310176128
Cl       16.35720973155049   15.72788441801933   15.20877046522322
C        12.30521724216402   14.04667245861231   14.85979418313739
H        12.00167314914047   14.05340555452113   15.91377512293631
C        11.22183045838393   13.32236883642542   14.05029580213323
H        11.49884463501138   13.27645935749319   12.99913436291559
H        10.28100687835043   13.85874310404642   14.13555095640005
H        11.07489273851954   12.30751357928149   14.41390105870526
C        12.45562556400753   15.49456517560433   14.39078348800582
H        11.59832566795903   16.07606681831026   14.71819449466596
H        12.50149411558001   15.55494420701131   13.30613442267510
H        13.35661617145955   15.94839568146800   14.80303833406089

