39
CSD_code = PIZLAN | q = 0 | S = 0 | Stoichiometry = C12H16N10Zn | MND = 6
Zn       -0.00048401189721    0.00088684916630    0.00062945007527
N         2.10018633340032    0.39609115749350    0.58608425428782
N         1.03888919436658    0.88491437701553   -1.82850910746019
H         1.44784885275227    0.00293844114770   -2.12533264590604
H         0.53628278443192    1.27804711829581   -2.61673170902829
N        -0.41612249043124    1.70336853642904    0.73863027036174
N         0.17625548987327    2.69884905221022    0.87870815192300
N         0.72016148497234    3.68453923128158    1.03514092627376
C         2.61274856175788    0.01821847169468    1.74949499687185
H         2.10460986381877   -0.80097500351752    2.23780710339396
C         3.72451762264348    0.61292943335990    2.31479882575460
H         4.10310852476285    0.27544535652078    3.26648881321481
C         4.33214286951374    1.65585290033711    1.62957104071677
H         5.19556820111126    2.15763258922478    2.03970145625429
C         3.80990777512088    2.03864272924370    0.40931949540434
H         4.25067039831646    2.84426368433355   -0.15679425780299
C         2.68656257886705    1.37959441441861   -0.08223819328008
C         2.08862127183987    1.79657260096543   -1.40003060179647
H         1.65587607680767    2.79317172840959   -1.26100453791025
H         2.90001842792084    1.88595245287043   -2.14001345575817
N        -2.10130512664120   -0.39516042672706   -0.58493238757814
N        -1.04019442272865   -0.88315283362940    1.82950298154468
H        -1.45018283367937   -0.00136815786378    2.12546030327975
H        -0.53791769421744   -1.27531267170840    2.61842779138686
N         0.41506536513771   -1.70158298309722   -0.73764726722856
N        -0.17747075474438   -2.69639981082480   -0.87946166278624
N        -0.72180831486648   -3.68148341641622   -1.03790265080560
C        -2.61340188145978   -0.01808692549069   -1.74883450887666
H        -2.10621141486222    0.80205426667625   -2.23653999606024
C        -3.72350911204812   -0.61477556917216   -2.31530245476768
H        -4.10179438988505   -0.27784043809813   -3.26729496915499
C        -4.32987234483929   -1.65892586049811   -1.63080666759587
H        -5.19201244542049   -2.16216570505186   -2.04186320435367
C        -3.80807824816897   -2.04104515533848   -0.41015761171639
H        -4.24781554790228   -2.84765264869612    0.15532387029452
C        -2.68645312067012   -1.37995583306016    0.08259085017574
C        -2.08882984509608   -1.79599453421147    1.40082807154422
H        -1.65506368577768   -2.79222852141196    1.26245063821453
H        -2.90051399208347   -1.88585889627727    2.14043859889248

