82
CSD_code = PIZMIV | q = 0 | S = 0 | Stoichiometry = C41H35N2NiP3 | MND = 7
Ni        0.58831879241680    5.57173447332599    6.01544443108725
P        -0.20298348292882    3.59504643722260    5.81013834485624
N         0.02697442695051    2.77710670738701    4.43416757717773
C         2.45947509902779    6.57272432770788    6.38213488165322
H         3.27705886803451    6.83575382751290    5.72841274704972
P         0.19130505744194    3.55366679221774    3.01871423267210
N        -0.34741654321506    5.07537575191525    2.90455394271089
C         2.36475078535403    5.45241075612199    7.20166950658271
H         3.09854312346712    4.66899260734889    7.32160774620459
P        -0.31946460919712    6.11142648912623    4.15035491137977
C         1.18581297085422    5.60050719783016    8.01901233006997
H         0.93846437057191    4.95521071253319    8.85000336297043
C         0.60470821530655    6.84716377554280    7.73716017167835
H        -0.19315682523360    7.32161446747889    8.28746416886225
C         1.32831959269760    7.41034170969404    6.66167759812198
H         1.20022632049755    8.40998595648165    6.26930967610899
C         0.38677471610664    2.42051614542345    7.06935835087585
C        -0.24074614005391    2.29031542054842    8.30156419566709
H        -1.13241148860872    2.86463402021325    8.51329911219736
C         0.27302613835722    1.42050469109139    9.24653473829791
H        -0.21828466251993    1.31390691696053   10.20330198299043
C         1.41669961158513    0.68838320616935    8.97043242293886
H         1.81693428527077    0.01381109382466    9.71339283477162
C         2.04653271749201    0.82211293591128    7.74335902491097
H         2.93907825684016    0.25176497158939    7.52903614489399
C         1.53541775942185    1.68895198938329    6.79527253972505
H         2.00992663618339    1.80442920951494    5.83066970355599
C        -2.00454323186933    3.68582074081187    6.10542035537304
C        -2.50426532690593    4.64404062798924    6.97900136483947
H        -1.80638738817905    5.30892854478800    7.48048230227529
C        -3.86626499391507    4.75282968124167    7.18261907601116
H        -4.25652585968407    5.49700845505980    7.86194669636842
C        -4.73315859985202    3.91372690660040    6.50078430800142
H        -5.79907388105469    4.00409381778555    6.65193468783973
C        -4.23801872667622    2.96827539742237    5.61755584968883
H        -4.91795201857843    2.32271048184046    5.08044632292741
C        -2.87412410294327    2.85242435975631    5.41794271295063
H        -2.46857866493957    2.12966027954969    4.72353258154867
C         1.96876495045114    3.53012603527734    2.61538523341025
C         2.80939860443907    4.02295287001898    3.60523284153492
H         2.36565508655941    4.34218617158607    4.55306360235634
C         4.17001668744976    4.10738977619901    3.38552480384274
H         4.82499261527478    4.49046130100830    4.15521162843536
C         4.69216483317223    3.69767662988505    2.16702432216038
H         5.75597053006695    3.76078529541965    1.98919112974199
C         3.85489654731932    3.21025436841324    1.17709384225816
H         4.26780683211398    2.89520806734070    0.22954498482218
C         2.48953258988307    3.12701273670945    1.39590123371065
H         1.82737176974153    2.75053300552359    0.62811287220260
C        -0.64983941824174    2.59398403226526    1.75058802457181
C        -0.65932847898766    1.20952993692705    1.85457974433549
H        -0.16452980071281    0.74803025033485    2.69741005423550
C        -1.30660732875711    0.45603239927234    0.89242197556776
H        -1.32087863921158   -0.62182135761650    0.96656331167067
C        -1.93898226584121    1.08600922961962   -0.16876021827587
H        -2.44423349113060    0.49607634330634   -0.91988086575711
C        -1.92858072482600    2.46837830052894   -0.26932933645046
H        -2.42500336185121    2.95299921728971   -1.09774295293979
C        -1.28279339625400    3.22690213302976    0.69116308280331
H        -1.26028824964461    4.30589948075343    0.64109531514487
C        -2.05857781649182    6.57962463007678    4.43708795906702
C        -3.08182663523594    5.99110395053283    3.70919255908597
H        -2.83127627006071    5.26800532884477    2.94633275208683
C        -4.39771817739666    6.32736147071328    3.97187707997467
H        -5.19424524593985    5.86604137190729    3.40617302524438
C        -4.69538150152704    7.25095916747480    4.95964174607142
H        -5.72376952113525    7.51194719234302    5.16352754019559
C        -3.67571883282387    7.83585060545287    5.69444405869433
H        -3.90979851890212    8.55212293416053    6.46953362817427
C        -2.36140600346527    7.49449002306591    5.44081800733838
H        -1.55530726616128    7.92726918019983    6.02041133483146
C         0.42853121563491    7.61214182423108    3.41631431090257
C        -0.20370821410244    8.84482073562656    3.33607550700242
H        -1.21093658564915    8.96429125001898    3.70882927191262
C         0.45652241371807    9.92201046999499    2.76869961936293
H        -0.03951969280277   10.88038332944101    2.70700047164352
C         1.74453818869058    9.77696859797545    2.28245537457227
H         2.25589342152506   10.62292914876372    1.84659050500031
C         2.37547414971219    8.54449598969313    2.35374751632398
H         3.37907436067276    8.42622483113270    1.97046400308116
C         1.72026104424810    7.46865954343626    2.91991323193774
H         2.19919839895788    6.49938031889417    2.98036293028171

