59
CSD_code = PIZMUG | q = 0 | S = 0 | Stoichiometry = C30H20N6NiS2 | MND = 6
Ni        3.56136858297353    3.05401387480827    6.11000289759249
N         4.90668890581132    3.49439230353440    4.96708028171032
C         5.20222029808621    3.64887903136193    3.83803117734212
S         5.66985818740191    3.88452836750263    2.34247970706357
N         2.22258013664241    2.65808098576653    7.28140480948678
C         1.79877175498361    1.86839876504152    8.04442939813890
S         1.17677553673453    0.85359911385746    9.09118068184196
N         3.81714723683625    4.80333818061295    7.04124116090405
C         5.02976907005508    5.21397091523455    7.40980465809254
C         5.25206257410443    6.40031199115357    8.08146770922056
C         4.16535672108963    7.21866669566264    8.39507646869748
C         2.90005692481904    6.78456242580450    8.00159499434321
C         2.77662840758035    5.58098829241921    7.33313408281546
C         4.37306065854268    8.46116729934875    9.10114220723816
C         5.23999283482268    9.24885591944942    9.64053437643446
N         2.01409884329955    4.06935232008787    4.75343165723037
C         0.98976822702064    3.29986391275135    4.38076223390056
C         0.41165665269901    3.34418756657989    3.12688070163320
C         0.91203097094090    4.24701187105575    2.18626039959263
C         1.94675980476571    5.09085464213358    2.58826598040638
C         2.44739202444505    4.96958986328145    3.87058298295422
C         0.34888897614289    4.29482977977968    0.85601009682924
C        -0.54771169493318    3.79937068334630    0.07129349328263
N         3.30618465229316    1.28683461444041    5.17516904930266
C         3.18651857557029    0.14957597371703    5.86087099695831
C         2.97837378870958   -1.08081647402501    5.26919201931251
C         2.88104744752522   -1.16262871620870    3.88138029061588
C         3.01088261709795    0.02657987545403    3.16290718961935
C         3.22199131780711    1.20729037241488    3.84590624936339
C         2.65588636248470   -2.40999691189494    3.19133825716544
C         2.50096656631526   -2.98279644282582    2.04670441196820
N         5.12131219351499    2.14737302359637    7.52885929310660
C         5.89303582677326    1.20466015107299    6.98504116640091
C         6.29114972059050    0.06048049693680    7.64920221420155
C         5.87813386744721   -0.12989873087513    8.96958865007966
C         5.12126520382266    0.88063995714432    9.56146149513799
C         4.78383084447704    1.98961292203982    8.80896452870103
C         6.24231705648358   -1.33727539128265    9.67660338552877
C         6.85680916495241   -2.46809140130412    9.57906658676231
H         5.85911409272242    4.56811860655763    7.15586157864626
H         6.25181448493155    6.69343624701464    8.36076697220060
H         2.01895892307670    7.37175603569301    8.21307938238045
H         1.80301238344809    5.22640516027466    7.02338436966417
H         3.48809869364631    9.08417930831594    9.33640593639256
H         0.61389454583168    2.61471279627731    5.13083862634005
H        -0.40981170819287    2.69246051644354    2.87310783800582
H         2.36160739555336    5.82668752133580    1.91629699732406
H         3.24382525564378    5.62289591046384    4.20248564021275
H         0.79342489277232    5.00488219409059    0.13459121084746
H         3.24084417092958    0.20763757697832    6.93845093336365
H         2.88886619685208   -1.95861678959853    5.89101683428073
H         2.95053232715773    0.02540391064611    2.08616796349931
H         3.34248707280570    2.12187814366428    3.28303310368784
H         2.55455786549815   -3.33284209337259    3.79597526756268
H         6.20625570299166    1.37996241850537    5.96308032484044
H         6.90797877272752   -0.67698980329022    7.15955189139435
H         4.79311059463303    0.80600851074970   10.58707188497147
H         4.20390385671072    2.78737657752568    9.25455144330361
H         5.89769763949223   -1.44301086723339   10.72113386011058

