92
CSD_code = PIZNAO | q = 1 | S = 0 | Stoichiometry = C42H37N6O4P2Pt(1+) | MND = 4
Pt        3.36501145547283   10.44096573134988    4.93336556604407
N         3.71602339239515   12.73906172519427    6.60544500470358
O         4.35172907384938   11.64972062185472    6.40223635039950
O         4.15870806130648   13.51754963517612    7.40319765460241
O         2.68217867892369   12.91029535233559    5.97828829259663
O         1.02975428149603   11.64738810348219    3.78743744134002
N        -0.79339460445998   12.29525202609002    4.99605907478281
H        -1.08760251436360   12.85522908002544    4.20439797220978
N        -2.70821254810656   12.98900448758092    6.11002584955393
H        -3.21546236079556   13.07077451993095    6.97444095719446
H        -2.91696375543659   13.63398097376457    5.36876144215413
N        -1.23399708329140   11.65938652151064    7.23079980685289
N         1.85181629149757   10.17445125814105    6.33579812020292
N         0.56361497026232   10.28960826619510    8.13361693830128
C        -1.55262076385704   12.30567312000815    6.13953898829450
C        -0.07019115546432   10.99050129225002    7.15461264852804
C         0.74139915246468   10.90821078240384    6.03067753397571
C         0.41116124723335   11.61297481745658    4.83521083997985
C         1.72164761048002    9.82929939550797    7.59417115010539
H         2.43094338352609    9.24439203563162    8.14869684125675
C         0.10383129213530   10.12278973134202    9.48546775092535
H         0.76805718166003   10.63801818056263   10.18090078620278
H         0.06573709008583    9.06496842506484    9.74630123599830
H        -0.89223799358722   10.55517878025764    9.55204219004898
P         2.36896708079529    8.93300161386097    3.54106764743020
P         5.19543722463151   11.07106375344491    3.72758048596156
C         2.43796910820037    9.17293914099637    1.74056832211462
C         2.37299808404868   10.47039958409132    1.24084947070314
H         2.30170025954075   11.29539736525890    1.93283195077647
C         2.38047018537228   10.68771711437372   -0.12427799710074
H         2.32573338289512   11.69480150616230   -0.50879815518075
C         2.45951821517246    9.61513719521703   -0.99763892605341
H         2.46511228833104    9.78499501231322   -2.06336619240093
C         2.53340611009736    8.32383968940436   -0.50266146755054
H         2.59828974880719    7.48743952872796   -1.18196387227768
C         2.52497173833555    8.09793820164003    0.86220508736460
H         2.59495144299868    7.08858591313147    1.23903583602372
C         3.08638687382039    7.29080640896159    3.84623956612936
C         4.35966948264983    7.21614353084930    4.40121496152564
H         4.87629116809141    8.13379709347601    4.66117762928721
C         4.95275544520365    5.98723143036245    4.62813551660410
H         5.94186077240631    5.93827304513193    5.05785974413404
C         4.27335367102849    4.82318763405534    4.30653585959048
H         4.73284166815018    3.86287730300488    4.48293335386007
C         2.99788838787144    4.89033969076252    3.76729938728473
H         2.46496654994173    3.98292033952187    3.52661219355119
C         2.40172982966809    6.11737223478638    3.53761902670056
H         1.40032139141182    6.16653307318281    3.13190557909418
C         0.60194206535955    8.65256747650738    3.87392579017926
C         0.24125703363485    7.98732918902883    5.04431250143200
H         1.01345953637605    7.57525518046207    5.68153011169963
C        -1.09127130590785    7.84837160328131    5.38324986268170
H        -1.36657418963155    7.33071697194588    6.29001612804399
C        -2.07414259518817    8.37267943238445    4.55800182110100
H        -3.11430359654242    8.26891958217522    4.82620922667523
C        -1.72034481346625    9.01935578682056    3.38524798711026
H        -2.48663508555705    9.41368787717092    2.73480971554303
C        -0.38721162448039    9.16145796239329    3.04065561538581
H        -0.10811392322566    9.67461622166791    2.13228591969461
C         5.41463531334528   10.72120788697960    1.95670721530978
C         5.48958112415636   11.73177070550381    1.00626214368474
H         5.38628212432649   12.76452717829198    1.30611022288226
C         5.70622516499801   11.41288590136055   -0.32319874847692
H         5.77112759849270   12.20054175649107   -1.05844069731713
C         5.84672600401121   10.09095344926965   -0.70888930492896
H         6.02019270940703    9.84650022929483   -1.74550404451986
C         5.77002049231447    9.08020097655807    0.23699267025102
H         5.88278341581722    8.04924973381733   -0.06203180603804
C         5.55324554572728    9.39219173703241    1.56461341434442
H         5.49688070675412    8.60803037499343    2.30820938073155
C         6.72488337944748   10.40743070418694    4.44124866974759
C         7.92092164564595   10.49020841812415    3.73167133365969
H         7.93356559776670   10.93726194007322    2.74718166767580
C         9.08728618442622   10.00118324853597    4.29054476692514
H        10.01456439828357   10.07110080762895    3.74240155677560
C         9.06738317154353    9.42507177722560    5.55142658095196
H         9.98054535365848    9.04519239585797    5.98346576349939
C         7.87887632994644    9.34056626002818    6.25824677695221
H         7.86584195649337    8.89649636516257    7.24209645059115
C         6.70831924955955    9.83044165593977    5.70695895391428
H         5.78010926009398    9.78973621801593    6.26268312661433
C         5.29002312262751   12.87436264817564    3.86673977536493
C         6.41979672370929   13.54049320895575    4.32675282000650
H         7.30936453131540   12.98501048024312    4.58671668593346
C         6.38896430529764   14.91711934870438    4.46839607688353
H         7.26147288510678   15.43563666718291    4.83506261815254
C         5.23966834129060   15.62554596223995    4.15843315969418
H         5.21900359650677   16.69715821375895    4.28411131997471
C         4.11064146851716   14.96080110159999    3.70458765202537
H         3.21047669101934   15.51217423898153    3.47990491671334
C         4.12960895641364   13.58634342552010    3.56219929607394
H         3.24280065776132   13.05133543438709    3.24483946287716

