86
CSD_code = PIZQIZ | q = 0 | S = 0 | Stoichiometry = C31H50NP2SV | MND = 5
V         0.11422004340108    1.11126026371688    5.17526567034980
S         1.09277146376244    2.04593374275407    6.71249357258591
P        -1.74258384910745    2.48786592370316    5.26452100135601
P         2.10901951886536    0.25080595884207    4.19830537909588
N        -0.30111863887652    1.33284413161737    3.23451469376140
C        -3.09411937619786    2.52309789208450    6.53820444891901
H        -3.88912725300072    3.20436020284118    6.21084419456943
C        -2.49655754116617    3.00868040222041    7.85718973908336
H        -3.16810591212519    2.78774084686296    8.68556201414674
H        -2.32465178775507    4.08296745764703    7.84169986295800
H        -1.54200477357405    2.50908621959865    8.03692445476645
C        -3.65329174347073    1.11163553017183    6.67277585694050
H        -4.37917136456794    1.05983180821224    7.48353421852677
H        -2.83340454930813    0.42580616321285    6.88521974455276
H        -4.13916022652852    0.79029479295584    5.75226271437799
C        -1.34869866399874    4.29671989106975    5.02247226871408
H        -1.05314393782628    4.66164547631683    6.01604752034072
C        -2.52874104757624    5.10659267167595    4.49369942740397
H        -2.22383290124015    6.13984195245665    4.33163394652608
H        -3.36111638126754    5.10987737388297    5.19414080123669
H        -2.87493570873842    4.70080358174770    3.54346145812987
C        -0.14220472460066    4.42106116380697    4.09401928292159
H         0.18130554964215    5.46014735850973    4.03155217348228
H        -0.39196209818825    4.08537250345442    3.08705126565022
H         0.69554517957410    3.82668355857386    4.47235773641422
C        -2.54557091458073    1.96906279613118    3.73558327898092
C        -3.88902706623983    2.05345278274813    3.40558856779934
H        -4.57935665021203    2.54308298759448    4.07982183767237
C        -4.36222074613186    1.52242148026197    2.21458051235039
C        -5.81320822544492    1.60700203012748    1.84440968702085
H        -5.93263784369192    2.07455714792146    0.86744563235236
H        -6.36793612315195    2.18818489374956    2.57737622772403
H        -6.25165821511866    0.61021110319810    1.79081731687617
C        -3.45562266816671    0.88459845398054    1.36970459655370
H        -3.81551490899616    0.44067358655349    0.45148302401126
C        -2.11425442065330    0.80613351952639    1.67320686656911
H        -1.43553236521475    0.29665779700648    1.00156683245427
C        -1.61752339162079    1.36633211785577    2.86070972769223
C         0.67506083462439    1.52211817074380    2.30529869110019
C         0.48387343020888    2.20703175094895    1.08962726454391
H        -0.49751497900931    2.59144799896395    0.84402099050953
C         1.53155323535690    2.41853166662641    0.22390246745366
H         1.35276700226236    2.95376594262869   -0.69883453926093
C         2.82050653804687    1.97579767286367    0.51396672904368
C         3.94324511815048    2.21155835374341   -0.45194730264563
H         4.90347850585705    1.98283275617154    0.00464181892023
H         3.95286468421161    3.24876649123249   -0.78392337088483
H         3.82467028482144    1.58156189033023   -1.33458857033909
C         3.02894827339692    1.31611769976031    1.71523236886483
H         4.02883996355937    0.98834107501264    1.96484485951460
C         1.98464482781836    1.08468831053478    2.59930514454503
C         2.28802826586140   -1.54808687678243    3.69373561175191
H         2.44099354801358   -2.10384989315118    4.62760128642327
C         0.96001432343639   -1.97492300651005    3.07331409917685
H         0.95599070012663   -3.04512065191181    2.86755552491879
H         0.79753076761071   -1.44724568225655    2.13289395355713
H         0.13200233294434   -1.74814658163041    3.74621945363382
C         3.43571373324272   -1.85532235479693    2.73760989247494
H         3.41388512930532   -2.91371070664172    2.47871339070054
H         4.40439582273218   -1.64505198545029    3.18449684164176
H         3.33562729646595   -1.28272425798588    1.81762027453165
C         3.82352431893063    0.71394488981141    4.76954453364034
H         4.53871455652877    0.31956096307631    4.03701633826373
C         3.95833684424932    2.23236179173709    4.83422429240183
H         4.96332618742287    2.50497474808573    5.15328482125615
H         3.24954350533703    2.63584353721663    5.55927119252657
H         3.76740603087031    2.69054863959316    3.86431438251778
C         4.09772387858770    0.09424357583508    6.13510461171081
H         5.09459139730931    0.36584997741641    6.47920203521032
H         4.03208849820429   -0.99223260297267    6.09881469627164
H         3.37169498061774    0.47263970173358    6.85634038563823
C        -0.61499695451979   -0.36148239745749    5.97719147808634
H        -1.28104973074817   -0.81571736320506    5.22353335636320
C        -0.51059642650774   -1.20796043465731    7.20748792887967
C        -1.60701149514314   -2.28366449347343    7.25618516630688
H        -2.59721507490483   -1.83239053097351    7.29105440345031
H        -1.48572279507549   -2.90402047545699    8.14251010843456
H        -1.55451447944897   -2.92819895781174    6.37937270010697
C        -0.56204817894469   -0.37417211606207    8.49563844670097
H         0.15491677429205    0.44249302558157    8.43272706137653
H        -0.31295251132457   -0.99729525638465    9.35217349880650
H        -1.55473216953775    0.04089182713394    8.65309328067088
C         0.86079247807285   -1.90853526167679    7.15042251318854
H         1.64134569594925   -1.15379056561900    7.06900256663504
H         0.90935398029436   -2.57539476687498    6.29128402481179
H         1.02019531355021   -2.49580280168851    8.05285174174804

