66
CSD_code = PIZSUM | q = 0 | S = 0 | Stoichiometry = C32H27F5PRh | MND = 6
Rh        2.44563582738795    1.52840155561076    2.01393642854082
P         1.30153887036559    0.75020125085367    3.82878188610043
F         5.24826321425824   -0.03797373562146    2.90322303301992
F         5.88367763471791   -2.67199700637856    2.62842667528537
F         4.10788004912024   -4.39581902925593    1.47229009294093
F         1.69894955148703   -3.45984842994594    0.56642329131277
F         1.09948108578442   -0.79049614043491    0.83923381924080
C         3.15882369658613   -0.34592013741223    1.85929987904999
C         4.36692459008723   -0.87160973716250    2.29968009807515
C         4.70519465347893   -2.21253486515671    2.17332985227785
C         3.80517293204399   -3.09226270838738    1.58453463493571
C         2.58249046708025   -2.61437008449558    1.12382457001280
C         2.29918169693510   -1.26798632680357    1.26721448730857
C         2.15956023848641    1.12285712577798    5.38990917546315
C         1.65554076529874    0.72378969530412    6.62454336807574
C         2.36955937513615    0.99173598554770    7.77769186630781
C         3.59203129012909    1.64254053765859    7.70516257014576
C         4.10943762763579    2.01638936298664    6.47590902818018
C         3.39535402307061    1.75553594091682    5.32000729542035
C         1.06152392390411   -1.04916242714649    4.06323114803697
C        -0.10089047312428   -1.72675422383455    3.71807697324875
C        -0.15353170600190   -3.10770276521442    3.80506067036271
C         0.94976535630244   -3.82488993084306    4.23311814274019
C         2.10786423790763   -3.15451849100244    4.59470072958990
C         2.16437803425815   -1.77733607364181    4.50931356749062
C        -0.38633570950163    1.41304922983250    4.02293098930041
C        -1.23242412880649    1.22061394447567    2.92942460393655
C        -2.52253376861655    1.71474384953310    2.94697358959460
C        -2.97193589143649    2.43110061666569    4.04564336421385
C        -2.12327283516071    2.66055735899257    5.11503274956213
C        -0.83249226616561    2.15814835276960    5.10645785122410
C         2.10774100801826    3.60020695811460    2.57244366824617
C         1.21730872371831    3.27938992167528    1.56814814629833
C         1.36569101613252    3.73050853694754    0.13243557619000
C         2.08512237505575    2.68383412434173   -0.73771665177058
C         3.14827964891431    1.90889566441792    0.00122251246394
C         4.07021864909966    2.44068162602884    0.88291371515713
C         4.21980914658138    3.91845416606174    1.16905901504642
C         3.38247985843592    4.38649721546412    2.37625876888119
H         0.71493753658933    0.19166124767742    6.67416056057408
H         1.97771341420585    0.68456581420569    8.73641885457153
H         4.14696880473514    1.84478127001108    8.60935390897955
H         5.07247636961253    2.50176707846537    6.41909541051883
H         3.79675630157713    2.01282468309519    4.34321569728933
H        -0.96982707143611   -1.18183984493066    3.38101814498244
H        -1.06001579126443   -3.62514837329866    3.52758762287553
H         0.90938392670362   -4.90245955684764    4.28406741528105
H         2.97035394940106   -3.70748001931779    4.93663700151636
H         3.06948382772977   -1.25475192403260    4.78814841338278
H        -0.85627852567699    0.69365777326902    2.06026467247726
H        -3.17556360264324    1.55211268095307    2.10192979207298
H        -3.97846233970621    2.82197959498967    4.06070700559426
H        -2.46606497911827    3.23757213743566    5.96154776435285
H        -0.17419296207766    2.35401683115713    5.94062754714421
H         1.72768765200330    3.63522034245926    3.59569906590814
H         0.19670577409013    3.03328649327081    1.85798657465706
H         1.89707528114360    4.68246864360648    0.10632596228037
H         0.37236464765172    3.90501209804995   -0.28621328783824
H         1.34799107546556    1.96492916347960   -1.10506344508180
H         2.53204230698999    3.16722319428471   -1.61357595484147
H         3.38521050295705    0.95298079269249   -0.46648797523863
H         4.95857672890407    1.84906827540492    1.09872787876847
H         5.27080753713659    4.12928904279613    1.37552163148352
H         3.94907884791333    4.48215518811369    0.27541716480245
H         3.98399556494149    4.29160045003930    3.28343873605700
H         3.13523243432414    5.44825601607787    2.26629265584127

