45
CSD_code = PIZTOK | q = 0 | S = 0 | Stoichiometry = C22H14N4O4Zn | MND = 6
Zn        9.88114171630584    5.07161711818655   14.21978770771697
N         8.05208136506812    4.60493571459159   15.25714760177833
C         7.22990630678228    5.46368267718609   15.82754257777932
H         7.50857971272440    6.50617909595908   15.76301212879213
C         6.07245627975226    5.06989942888481   16.48528236848055
H         5.42432157586484    5.80376355742473   16.93652497605766
C         5.77998316412441    3.71768238599407   16.54916937656018
H         4.89399421583632    3.36802798531565   17.05790889959112
C         6.64577969308507    2.81567099765939   15.95248287499467
H         6.44804896930941    1.75708778616572   16.00470625902372
C         7.77973750681014    3.29973055107750   15.30486713618398
C         8.75770942962630    2.43557772155912   14.62436119010312
C         8.52190580175431    1.11174173155125   14.25550726856039
H         7.58277795776405    0.62908408907006   14.47079699924653
C         9.51296675327916    0.43518196481670   13.56349197040770
H         9.35468906752890   -0.58665661103295   13.25229010525412
C        10.69701316361973    1.08148208568386   13.24860497590772
H        11.45748287594945    0.57519067068745   12.67709362439695
C        10.85601599129337    2.40637868726913   13.65302660158217
N         9.90615294279789    3.02790237194711   14.33494273730571
N        11.84450160798042    4.55215495288430   13.50167726591352
C        12.02714843018177    3.24062773023261   13.33876598181874
C        13.24324215223192    2.72388472861356   12.89868278374816
H        13.38667900778382    1.66056329768031   12.79286704046512
C        14.27885176820742    3.59944665538690   12.61553887518191
H        15.23176080872827    3.22422668846421   12.27315725536256
C        14.07197045407886    4.95859950525915   12.78292556761144
H        14.85205841835357    5.67259310805816   12.57333065009579
C        12.83084997590387    5.38574265994214   13.23519014544279
H        12.62529475544633    6.43496894556779   13.39485960381837
O         9.00715032932085    4.80810820182757   12.34060011690528
C         8.72601132531518    5.86397168383182   11.69932867725002
O         8.21659484446625    5.95536254725283   10.59588913729608
C         9.09446353014949    7.16085096266596   12.45430330323098
C         8.91235858960566    8.46664659897740   12.01929872804336
H         8.46793590192182    8.64798118181502   11.05352697353069
C         9.31530390249504    9.49897083479278   12.85700016173898
H         9.18711710651096   10.52674732063505   12.54716584240100
C         9.88311251025443    9.21354147186628   14.09283809376240
H        10.20842598177250    9.98676616980346   14.77086095924820
C        10.02979288628603    7.88100022518455   14.45221002323737
N         9.63700872284887    6.92045769475639   13.63417303706705
C        10.62991460509242    7.32713461169679   15.76620065117449
O        11.02763490398883    8.12097959782228   16.60087967450782
O        10.64007299179885    6.06091261498600   15.82948207142295

