61
CSD_code = PIZVUQ | q = 1 | S = 0 | Stoichiometry = C21H31MoO6P2(1+) | MND = 10
Mo        0.52303174014935    9.51659384153107    2.20584924753770
P         1.95742251507995    7.64098025369409    2.04481937298306
P         2.41138920502668   10.96239751080912    1.99798455016037
O         2.39079000077939    7.15992446898156    0.59188781937903
O         1.32101502671927    6.23459673323846    2.42940836736468
O         3.32232254929247    7.73217530330053    2.90529302542165
O         3.94579681992932   10.53937198705648    2.06881856605238
O         2.49170037825551   12.22636757109417    2.98513524812128
O         2.38594829985433   11.56388523595929    0.51617858655229
C        -1.49549935778004   10.69329835197171    2.50188920305126
C        -0.82709898353561   11.22638130279417    1.39805936433826
C        -0.30233053528245   10.54391013452012    0.26453130281565
C        -0.28914437361910    9.17948668890284   -0.01134836161494
C        -0.68983420728833    8.13301275710485    0.83449224715471
C        -1.40904956195169    8.18930359325152    2.06081503895817
C        -1.74568900344593    9.32374183732134    2.79732127914760
C         1.20832625931782    9.53063503741740    4.01880083100344
C         1.69304017172032    9.52749099342373    5.23166244792716
C         0.95173985660553    9.78304484162137    6.46340370730930
C        -0.39422057521577   10.15161848036666    6.42380981362132
C        -1.08967062856134   10.39065696684641    7.59167111268512
C        -0.45477138683239   10.26637239960301    8.81829308625206
C         0.88118028741856    9.90380045432573    8.86823130196742
C         1.58258135848667    9.66446040408971    7.70130378380659
C         3.11970982143366    8.03447445965883   -0.25989053002028
C         0.81873063351290    6.03736887802872    3.74642324419895
C         4.25063932500889    6.63706558431432    2.87410335169050
C         4.71142433728863   10.42675806994137    3.26718695067188
C         1.38415847464812   12.83697900320315    3.62422075569946
C         3.35828691810038   12.52740785357007    0.08964318075455
H        -1.86251036987108   11.40720702719069    3.23451045718825
H        -0.75534030150504   12.31027518826587    1.35833595344318
H         0.12305395812601   11.18554732635880   -0.49966268764155
H         0.17025116434408    8.88401338905054   -0.94916606967906
H        -0.51882651285237    7.12918436109927    0.45200541735873
H        -1.72375907641826    7.23376341843355    2.46880650289134
H        -2.27469330445203    9.13995927949239    3.72925133606939
H         2.74862612430458    9.30833031751990    5.37497456408672
H        -0.87882356577887   10.24799674552575    5.46240984189499
H        -2.13032717146788   10.67622293110709    7.55020621119641
H        -0.99993407910723   10.45271508044853    9.73048574674513
H         1.37885002643105    9.80769779373608    9.82103077521770
H         2.62421156624546    9.38221495362256    7.74768611340052
H         2.80212899591708    9.07379388672160   -0.12725292050993
H         4.18867585931275    7.96456006328089   -0.05136415686302
H         2.92908979580223    7.71105951905958   -1.28301660842420
H         0.34149825513490    6.94698993456046    4.12498315676098
H         0.09485120375538    5.22521608259360    3.68939234131395
H         1.62640593672735    5.75327975556038    4.42273593224812
H         4.42531311979407    6.30675116479240    3.89840175821701
H         5.18804111963415    6.98430896486379    2.43873448326999
H         3.85701533679885    5.80705589224393    2.28381606626530
H         4.44406058130304   11.21415462311805    3.97084988378515
H         4.55327053460693    9.44748879699980    3.71628909666006
H         5.75403868876773   10.53825002350761    2.97071078966586
H         0.91960866973386   13.57303519000456    2.96569789353935
H         1.77279036625338   13.34067579596937    4.50907106513994
H         0.65266541722846   12.08244042752729    3.92507887906168
H         2.91287239678634   13.07364776920046   -0.74017163682644
H         4.26376064906604   12.02158381824368   -0.24270481036490
H         3.60210925025756   13.21441948196314    0.90017672990730

