77
CSD_code = PIZWIF | q = 0 | S = 0 | Stoichiometry = C28H41F3O2P2Pd | MND = 4
Pd       -0.41536010489922    4.12999239628166    4.28117948171764
P        -1.80653630909760    2.33931657573234    4.71062428691114
P         0.54751660333454    6.07956198930835    3.63552883248208
O         0.17320074442671    3.03928023422639    2.37515176601729
O         2.07969869461475    3.36919718817375    3.46623136025856
F         3.42858084803189    2.11298045014124    1.49193440676901
F         1.55064602473333    1.44554644228904    0.66906698688418
F         2.24129921208741    3.45628723354589    0.29362657343653
C        -0.78094889545750    0.79754927395839    4.75261162459297
H        -1.39589060625736   -0.10270126568558    4.69546730274622
H        -0.12758908197852    0.83542380322975    3.87585503912521
C         0.03073431630976    0.83865880812829    6.01610068106075
C        -0.10757529012162   -0.13851897204961    6.99359830637006
H        -0.77749447021049   -0.97174737571118    6.83071612988438
C         0.61589172876065   -0.06728056772229    8.17174292007005
H         0.49765784778442   -0.83749021539264    8.91967042245508
C         1.48580178711311    0.98628439709612    8.39017714767676
H         2.04592398084444    1.04444844054494    9.31148872319335
C         1.64107352516811    1.96014845358554    7.41744853097557
H         2.32544633922752    2.78001988031460    7.57645900573770
C         0.92010774346056    1.88881979624311    6.23817209959773
H         1.07775824282094    2.64892591273043    5.46713045655926
C        -2.93343512893355    2.08596801135301    6.18098408884743
H        -2.27838184630270    2.13252505490965    7.05860480903545
C        -3.65030467923589    0.73931974237885    6.20543930418067
H        -4.34418773498696    0.72046212043870    7.04455856458081
H        -2.95060582840186   -0.08034251096011    6.33737437290682
H        -4.22317736273998    0.56620403221505    5.29717346694347
C        -3.93276412084420    3.23745774285006    6.26124217955102
H        -4.68434248697652    3.15348020826534    5.47895676636391
H        -3.42147543396346    4.19461337654056    6.15988949914794
H        -4.44501523855975    3.22625955590052    7.22171501288428
C        -2.98335315762628    2.20172956442380    3.26353808103216
H        -3.93923256635609    1.80469448118278    3.62664735526589
C        -3.19626780232917    3.63095712689297    2.75802723324143
H        -2.23822311997420    4.03418466647250    2.40893649490885
H        -3.57788804493557    4.27368560832313    3.55478590118014
H        -3.90243508395574    3.64663668825635    1.92856427164799
C        -2.46728744125305    1.30193153549155    2.14598974659878
H        -3.16001015216359    1.32743017456180    1.30577208453173
H        -2.37614879218820    0.26947951762245    2.47630362536816
H        -1.49742314149045    1.64737839101619    1.79710387331541
C        -0.89033834973685    5.25248874052939    5.86391821087952
C        -0.98052124463978    4.72784080456339    7.14471524712252
H        -0.79198987649381    3.67453839810792    7.31687203244895
C        -1.28065839937675    5.53970286456754    8.22944143145388
H        -1.34681263130558    5.10943659321626    9.21827144867401
C        -1.48988527452560    6.89385990719214    8.04524648266420
H        -1.73748182801339    7.52796536510232    8.88360303034673
C        -1.34302221888142    7.44133505395504    6.78207159082703
H        -1.45465935504394    8.50782013164362    6.63964362469338
C        -1.02833889237902    6.63500787204820    5.69720660416425
C        -0.72423185072994    7.22084089372643    4.34631627918219
H        -0.38447200386362    8.25728028337178    4.41812158339038
H        -1.61094532287063    7.18067482569546    3.70191472257564
C         0.67429163422194    6.56776167642198    1.84396241524918
H         1.56340488188147    6.06037936196089    1.45112803943683
C         0.82172143261450    8.07515862055025    1.65526253133514
H         1.00325725252670    8.29672050103249    0.60469502820364
H         1.65378762137614    8.47140793231071    2.23284144616313
H        -0.08735598377094    8.59200520221580    1.95546864039747
C        -0.54380551039213    6.02969859594059    1.09573790525069
H        -1.46761209163164    6.45906323421173    1.48491257799153
H        -0.58880390515075    4.94433493063180    1.18675905152188
H        -0.47358497373156    6.27426530093037    0.03711786361456
C         2.13182046760568    6.65382190546769    4.42726036370351
H         2.07442446634799    7.74563432541961    4.53540728917949
C         2.23075917451329    6.00393511839940    5.80720403272003
H         2.11091538513089    4.92128295407313    5.70433368188969
H         1.46586532630329    6.38077295306388    6.48346643528954
H         3.20665487225070    6.20317140968785    6.24732513735492
C         3.35368766714142    6.27706520215653    3.59296948870740
H         4.26087660834756    6.55294334544951    4.12851764467297
H         3.36590797197483    6.78449382189685    2.63112420357168
H         3.37037750843548    5.20157291745072    3.42961906024358
C         1.40947693066619    3.01574990581412    2.50360775205918
C         2.17140679426548    2.49361108394898    1.23744830710096

