91
CSD_code = PIZXON | q = 0 | S = 0 | Stoichiometry = C34H48Cl2N4O2Pd | MND = 4
Pd        0.00135532230361   -0.00055245627534    0.00115855792863
C         1.52216513350979    1.26260085509754    0.40355997626561
C         2.62264558470296    2.89748959382165    1.45543023106496
H         2.84720262650775    3.57623176789888    2.25207635201465
C         3.18543489192473    2.73958619230509    0.23610791949136
H         4.00803774689267    3.23630306323349   -0.23421633363979
C         0.74892937517502    1.79084918096305    2.66030558855292
C        -0.58173844901530    2.21519506161170    2.57708193256136
C        -1.41358430046888    1.96582679209019    3.66282246938738
H        -2.44556004730407    2.28088770345534    3.62693356419606
C        -0.93600136076862    1.33141217802170    4.79258049748783
H        -1.59885112351987    1.13913226889630    5.62371439113899
C         0.39041799780990    0.95454046696751    4.86844622484359
H         0.75448954779800    0.47354541104833    5.76229417462927
C         1.25662241023716    1.17015814471445    3.80569744070816
C        -1.09568985005902    3.02136739822774    1.40359357663378
H        -0.35048131903296    3.03047393861672    0.60049574663669
C        -1.32677243428014    4.46819751044105    1.84942615418363
H        -2.08511799176732    4.51673652397229    2.62787003745134
H        -1.65767818607792    5.06813628573835    1.00493698058899
H        -0.40758853391088    4.90039809636251    2.24070433647582
C        -2.37173252561163    2.41626076916346    0.81777037850487
H        -2.16927640480687    1.38276868502917    0.51033280573608
H        -2.66928157284578    2.97719553795170   -0.06510357696043
H        -3.18971025764832    2.42938980637764    1.53463478325008
C         2.70447247115587    0.75367158104754    3.91459093672704
H         3.18178304426359    0.85949250866698    2.93582105132003
C         2.83435724739021   -0.71324899854713    4.32679703735264
H         2.50204687237382   -0.86866520857571    5.34960650566690
H         3.87367871910639   -1.02715951981533    4.25488362596673
H         2.23138737928080   -1.33119152526693    3.66641302985130
C         3.43386468642515    1.66397494507011    4.90745165086432
H         3.36717826297442    2.70695696115664    4.60332853546165
H         4.48460150555207    1.38837909931509    4.96495057038611
H         2.99884278659569    1.57175333018818    5.89983732932308
C         2.81112994615574    1.25423109019435   -1.71511079267661
H         2.78641532360702    2.09658399030752   -2.41229581144180
H         2.04074214581975    0.53071511241746   -2.00821755640666
C         4.19386589387435    0.60498210063888   -1.77648787701413
H         4.31722886542650   -0.08412320507577   -0.92941695105783
H         4.26865229087136    0.03490899829617   -2.71193003328072
N         1.60192014376298    1.98511831503286    1.53886821226354
N         2.50225838706830    1.73068713635094   -0.39111424234536
O         5.17672492583743    1.61960287851475   -1.73658643496949
Cl        0.48838446744942   -1.33175861025691    1.80955930312062
H         6.04993643337052    1.21971782268874   -1.79654988468661
C        -1.51997408471321   -1.26319471101501   -0.40203882061627
C        -2.62327965886631   -2.89533677375127   -1.45537990475822
H        -2.84924071235814   -3.57275444151584   -2.25275158338426
C        -3.18519002180494   -2.73824464754006   -0.23558037879687
H        -4.00825795143617   -3.23442306528572    0.23450453436144
C        -0.74916680490893   -1.78942170932092   -2.66012549032546
C         0.58151582199618   -2.21383416690723   -2.57772615733318
C         1.41288399053361   -1.96389350240059   -3.66369200076060
H         2.44483903732140   -2.27906880493237   -3.62845584557858
C         0.93486244993011   -1.32877057826515   -4.79286141794251
H         1.59736502905171   -1.13591989408926   -5.62413061992243
C        -0.39165215324139   -0.95211726345371   -4.86806086328695
H        -0.75613658617680   -0.47078694646690   -5.76155696447177
C        -1.25743220158337   -1.16844019345323   -3.80511854471629
C         1.09578815840543   -3.02112943671153   -1.40514082527826
H         0.35111420483483   -3.03042879797442   -0.60153136346583
C         1.32560891701877   -4.46775999822362   -1.85231891251248
H         2.08334384275944   -4.51610872491004   -2.63136364672965
H         1.65675221701792   -5.06861873420907   -1.00857833051279
H         0.40586719726535   -4.89905377415706   -2.24329449272842
C         2.37262009769501   -2.41729153065296   -0.81973693235501
H         2.17101903364696   -1.38397878749038   -0.51114877457242
H         2.67051104605690   -2.97923556029097    0.06237830782234
H         3.19005753312416   -2.43019926393172   -1.53721718683522
C        -2.70574526540555   -0.75347926011456   -3.91392458186801
H        -3.18243997654815   -0.85782863986057   -2.93470249370938
C        -2.83781025220985    0.71238512507379   -4.32912410896092
H        -2.50651204304453    0.86606761693110   -5.35252843758857
H        -3.87756475075415    1.02495063338461   -4.25732008215935
H        -2.23528464828395    1.33262286874954   -3.67045732675827
C        -3.43432907241320   -1.66684182689405   -4.90461633452973
H        -3.36606900395825   -2.70909688690207   -4.59837732260081
H        -4.48547950947752   -1.39289931911741   -4.96242836016184
H        -2.99963268856542   -1.57613705335897   -5.89728351515843
C        -2.80865060972897   -1.25541059619792    1.71696283192466
H        -2.78434697956984   -2.09832615517753    2.41348985323452
H        -2.03780456221629   -0.53253138280077    2.01048826196603
C        -4.19111892523149   -0.60555934975501    1.77893880499328
H        -4.31424645361751    0.08411801355281    0.93229928573834
H        -4.26559590081572   -0.03602167059348    2.71472825846642
N        -1.60149425483893   -1.98409350937448   -1.53830068251713
N        -2.50035543473624   -1.73099979759249    0.39251782399063
O        -5.17454661714273   -1.61962574245698    1.73847438664136
Cl       -0.48493876791617    1.32924631046296   -1.80926848120621
H        -6.04756076320983   -1.21928764908199    1.79830602141022

