47
CSD_code = PIZXUS | q = 0 | S = 0 | Stoichiometry = C26H18MoO2 | MND = 10
C         4.61178611797270    1.84523776634493    8.71834419811313
C         4.52421877194965    1.39515752362070    7.35952038434023
C         4.43619074762185    2.31770645688927    6.28220386887058
C         4.41199137258450    3.64577288253128    6.55150179580508
C         4.32539580670960    4.13139511774265    7.89047264639029
C         4.13381778325806    5.50125254899331    8.13191888804185
C         3.86749879910301    5.96957113488002    9.39328454196223
C         3.72817770686949    5.06625704737419   10.44729898786541
C         3.95042582577659    3.72534934779103   10.24837077854397
C         4.33022403450611    3.23087317553043    8.98999125892740
C         4.72718734375022    0.66335074123171    9.55134163632729
C         4.57566624433770   -0.47335419574618    8.69462302246941
C         4.39846114741532   -1.78085142053295    9.22160300490077
C         4.39377647242299   -1.95227992086298   10.56487583843654
C         4.69330227752976   -0.87790839827210   11.45488933658930
C         4.82878371695280   -1.12694805694713   12.82999506415237
C         5.22878077444024   -0.14215891122507   13.69656385195434
C         5.54258858870353    1.12294585706352   13.20056874174477
C         5.39223664642622    1.40320473838594   11.86437117813553
C         4.91850872671386    0.43560274875016   10.96169192355415
C         4.56947809753189   -0.03738173634927    7.33165294102292
C         8.00976968654876    2.46739994999154    7.85437314762335
C         7.66264801207928    2.23287117185899    9.20611887089423
C         8.14655342690588    1.04122979418311    9.77941453879555
C         7.46481261541106    0.65526860767735    6.38720896245464
C         7.75230361101119   -0.84524549530608    8.23897890965869
O         8.00674422052296    0.65015605704283    5.37547219775746
O         8.44973269371309   -1.75311200239820    8.32991872844926
Mo        6.57698196074085    0.66501889387106    8.09022058961742
H         4.39457071003650    1.94208064439170    5.26842684305017
H         4.38620111466742    4.36935177509677    5.74987281807945
H         4.17315447086775    6.18224970853459    7.29366303768712
H         3.72209497691245    7.02553403663258    9.56546997785370
H         3.43452270097353    5.42147778917128   11.42405963199347
H         3.78244649048910    3.03575659358233   11.06050874579450
H         4.23134283167065   -2.60486701015163    8.54111500331455
H         4.21269999995966   -2.92645401340411   10.99454992520065
H         4.63271730756452   -2.12551543372422   13.19323758820024
H         5.33166635478073   -0.34846646539366   14.75127433030280
H         5.91635354276893    1.88511240296091   13.86858494549553
H         5.68799203744857    2.37669202184310   11.50317183183685
H         4.26716771506765   -0.64918197841358    6.48756764960594
H         9.02801080116698    2.24409876002561    7.54524738901270
H         7.60906561253612    3.36686619130094    7.39302827948757
H         7.04843395687674    2.94003775267832    9.75928441722205
H         9.16274449482939    0.73670355318585    9.54535273995375
H         7.85687165188721    0.82024224751988   10.80289501247241

