30
CSD_code = PMCCOC | q = 0 | S = 0 | Stoichiometry = C12H15CoO2 | MND = 7
Co        0.83559100046850    2.27484316108789    1.77447215353113
O        -1.03228334565417    1.73567159983055    3.91465405374145
O        -0.91197489761470    4.00678132435086    0.25617513418145
C        -0.29290879213340    1.94994518170808    3.06253995820272
C        -0.22395190658785    3.31642697436918    0.86329273742753
C         2.89680502520295    2.70522857936194    2.04781330231165
C         2.52847629165331    1.47359242300008    2.65631012378987
C         2.08826730851730    0.55932720441142    1.62126953822626
C         2.10676764628011    1.25338467523499    0.39855275545055
C         2.54539303784447    2.60622730307832    0.66942455534559
C         3.67566637918313    3.81461698258701    2.68553423813982
C         2.88228136928122    1.05431798091472    4.05071340814886
C         1.89433689169650   -0.91313432659555    1.81189831957531
C         1.93899326075711    0.66560869663388   -0.96829756746234
C         2.92392021042321    3.59480216456878   -0.39131462621806
H         4.74463361459155    3.62404886618045    2.56666862691897
H         3.46053920273124    3.88759300530020    3.74901309223101
H         3.44940939162968    4.77300139496998    2.22402229138057
H         3.88472822529619    0.62152427689475    4.05329607523810
H         2.18986938288957    0.30547613037075    4.42825354229680
H         2.87575499682131    1.90186602436607    4.73203912461699
H         2.86321134935898   -1.41535739975501    1.77281569002861
H         1.26219295521369   -1.33142328059598    1.03220680148210
H         1.44012719361776   -1.13201399206578    2.77551130341533
H         2.91289701203843    0.35241626092457   -1.35134633709887
H         1.52104860734333    1.39049140002703   -1.66308202469196
H         1.28605665496531   -0.20385642804472   -0.94637047358462
H         3.93292130617590    3.37463697139482   -0.74565207984087
H         2.91270810199099    4.61167389518083   -0.00609980305574
H         2.24802252601835    3.54278295030989   -1.24181391372823

