53
CSD_code = PMSIMO | q = 0 | S = 0 | Stoichiometry = C20H24MoO4P2Si2 | MND = 6
Mo        6.46642859048671   -4.09543171775727    4.30647417638372
P         4.91253290715331   -5.81708991650465    3.63639289370225
Si        5.74063731362574   -7.91088278666779    3.36388448867861
C         7.39213289207315   -4.09559513804618    2.58341823098318
O         7.98183845816038   -4.08905110984364    1.60279464181284
C         7.69551419847515   -2.72672062366784    4.94571527796493
O         8.39031899360429   -1.91118205874746    5.34266749083170
C         3.82367433492137   -5.60229996628415    2.21261857295291
C         4.30557298225796   -4.93813127804379    1.08896135263803
C         3.50771570687107   -4.79425776347620   -0.03072582573936
C         2.22150534593715   -5.30909869927959   -0.03605224494770
C         1.73388011162864   -5.96765712406641    1.08159154367855
C         2.52990826078718   -6.11825180340047    2.20109728311088
C         4.31323688559363   -9.17806140223630    3.30390589538726
C         6.67065483090064   -7.83502124363501    1.69496801704201
H         3.90113769416732   -6.17489655768778    4.53542026130559
H         5.30557686463523   -4.52387577878642    1.10551211830690
H         3.88558836435045   -4.27360693861001   -0.89819847504754
H         1.59535635786492   -5.19032407744070   -0.90783423180726
H         0.72791663863605   -6.36170755194454    1.08018424289176
H         2.14833146317058   -6.62455398571142    3.07827095664425
H         3.63776989673175   -8.96158439801481    2.48126456834398
H         3.73571234133124   -9.16815706057094    4.22309577944714
H         4.69738307863623  -10.18243732728783    3.16338084828685
H         5.98093017920839   -7.66535496443373    0.87120369363720
H         7.21780786587973   -8.74944157176006    1.48862708353044
H         7.38386273086056   -7.01239105853211    1.69970542459100
P         8.01981067011415   -5.81695673229470    4.97753582630119
C         5.54091668141792   -4.09567698031537    6.02966062896788
C         5.23716763110464   -2.72676738311574    3.66779826973977
Si        7.19185944574649   -7.91122516056932    5.24943441034076
C         9.10895431107161   -5.60223000251297    6.40111270975746
H         9.03101456592487   -6.17520861529236    4.07847445452571
O         4.95101266224729   -4.08948129149032    7.01018830348688
O         4.54226880431331   -1.91083538251593    3.27172521577130
C         8.61931539547573   -9.17829210029656    5.30984415432654
C         6.26207152355427   -7.83477625429520    6.91851989935780
C         8.62699702482766   -4.93826534440753    7.52481271514223
C        10.40279396687683   -6.11803848218755    6.41254422228284
H         9.29486561383734   -8.96144412985678    6.13232121086285
H         9.19667336534526   -9.16865182846952    4.39055419046648
H         8.23519488705943  -10.18261508499627    5.45079659437673
H         6.95185430968612   -7.66482164584500    7.74218603236479
H         5.71509943415688   -8.74924726279358    7.12516807334629
H         5.54868954671740   -7.01228290383915    6.91376437923434
C         9.42483871843117   -4.79442927384356    8.64449823345879
H         7.62692428501477   -4.52417462052519    7.50836667645595
C        11.19883146680076   -5.96746755603844    7.53204759878169
H        10.78446268236026   -6.62417757988252    5.53530684082530
C        10.71112879639044   -5.30907993307374    8.64977071946901
H         9.04685501527857   -4.27395537470432    9.51203540330805
H        12.20482439912901   -6.36142989717027    7.53342077602490
H        11.33724950918928   -5.19030527722401    9.52156839642367

