47
CSD_code = PNIHEP | q = 0 | S = 0 | Stoichiometry = C20H24N2Ni | MND = 4
Ni       -0.84538202915722    2.68779805266526    2.22316849924357
N        -0.42408982840662    1.22764647830123    3.47200522997547
C        -0.71406634512010    0.02301218551164    2.94543448637275
C        -0.77658272754920   -1.12606267648926    3.73114423445264
C        -0.52255100784074   -1.03253973838917    5.08676647468002
C        -0.21805189928934    0.21150429089608    5.62018587268352
C        -0.18604506835872    1.30882329405269    4.77655004706605
C        -0.08581958286045    4.14399192072401    3.21848852036674
C        -0.37238070215829    5.58045254021134    2.79846498819814
C        -0.85833045700279    5.07244274075739    4.13035147281378
C        -0.13770233586337    5.60346610702958    5.35534932228686
C        -2.33646210720799    4.85408985568916    4.38199894805588
H        -1.03903237888461   -2.07543856600811    3.29163851723336
H        -0.56583047505023   -1.91001662777633    5.71451486881192
H        -0.01118720803797    0.32973753639004    6.67197519506245
H         0.04530455588682    2.29343087616155    5.15943460884973
H         0.94461122753880    3.94340967813240    3.55595874660890
H         0.42294690288569    6.31961986441074    2.80303488636089
H         0.91675279251392    5.77239562725565    5.14906710354246
H        -0.58007882111709    6.54843428826394    5.67046157530247
H        -0.21839797833050    4.90134536096429    6.18598341017895
H        -2.47975172618623    4.29701112194684    5.30770771382728
H        -2.85699650250646    5.80731290655863    4.47257680840970
H        -2.77606115904190    4.28464574590965    3.56563692996985
N        -1.26667305918535    1.22764455308493    0.97433415334031
C        -1.60494253410334    4.14398867575624    1.22784277912017
C        -0.97668416948139    0.02301261915938    1.50090392765925
C        -1.31837923403938    5.58045082870478    1.64785962329624
C        -1.50472173831556    1.30881951841806   -0.33021031425437
C        -0.83243110548047    5.07243437752685    0.31597509175888
H        -2.63537374692455    3.94340598672187    0.89037403722477
C        -0.91415661155862   -1.12606074191331    0.71519353417790
H        -2.11370570696212    6.31961930000542    1.64328716095109
C        -1.47270229649164    0.21150157057874   -1.17384713994792
H        -1.73607564467076    2.29342599984282   -0.71309531763218
C        -1.55305907747528    5.60345303696521   -0.90902507217615
C         0.64570030029302    4.85407957152618    0.06432853605615
C        -1.16818867925182   -1.03253929156384   -0.64042859867585
H        -0.65170405337107   -2.07543532983036    1.15470019852170
H        -1.67957149438939    0.32973252948059   -2.22563595479613
H        -2.60751427180349    5.77238390103337   -0.70274406691784
H        -1.11068219129275    6.54841983802456   -1.22414079070863
H        -1.47236338392302    4.90132936402681   -1.73965669923726
H         0.78898972776638    4.29699162317465   -0.86137470306757
H         1.16623366876404    5.80730226167778   -0.02625927962093
H         1.08530032591854    4.28464409397861    0.88069597734162
H        -1.12491016288615   -1.91001714951171   -1.26817554270899

