86
CSD_code = POBBAK | q = 0 | S = 0 | Stoichiometry = C34H44Cl2O3P2Ru | MND = 9
P         1.86124333123651   10.65310080725452    2.13219172322852
C         3.28821645183264   11.48465279180571    3.00420888214220
H         4.15457181418292   10.82109527631454    2.92558056386613
H         3.51130450872180   12.42855550795345    2.50162252070511
C         2.94263821437685   11.74051425265558    4.46717900152568
H         2.43611702789164   10.87990814396074    4.91919370883519
H         2.28347663406706   12.60434697866328    4.59317799163834
P         4.44364725164630   12.00426344703972    5.50094609617700
C         2.32523541099010   10.95099260438556    0.31380770632440
C         3.80769399281703   10.72505594211149    0.02793285406980
H         4.43873587611207   11.35479894842794    0.65197582339597
H         4.00387969446025   10.94807829331047   -1.02355741852874
C         4.11810904423044    9.23876187385640    0.26120893968128
O         3.91402012243275    8.87715145084396    1.61005998971603
C         2.56284923185454    8.88787185731463    2.05656984358382
O         1.54997869518211   10.02528548281783   -0.44731243274501
C         1.66325901682669    8.13291304531101    1.07860106236347
H         1.90000374044907    7.06707999917932    1.09264400045356
H         0.61569761505506    8.28292652965206    1.34377140602385
O         3.30553916391212    8.48621808753485   -0.61439928505827
C         1.92996720014872    8.67220324087669   -0.33392170590199
C         1.86458824573087   12.34283798656968   -0.10479287561081
H         2.39914214677694   13.10270958136953    0.46020101742962
H         0.79827940501650   12.43785302663517    0.08613145736475
H         2.04239947143078   12.49162598649939   -1.16756156775619
C         5.57167049627720    8.90351750757765   -0.05939264689133
H         5.73322376177511    7.84463939380857    0.11671960721895
H         6.22496551135631    9.48214958558016    0.58612620362601
H         5.77510768275776    9.13035735729470   -1.10064716913351
C         2.55044767198137    8.24519655779966    3.43838875930044
H         2.85294447386091    7.20251611198351    3.36399576764196
H         1.55007425262379    8.30172529067192    3.86111249751559
H         3.24952229958455    8.75477161179373    4.09580896745702
C         1.14154904545602    7.91288089018070   -1.39551704880549
H         1.38735521586031    8.31955454526552   -2.37152211320244
H         0.08018081894014    8.03871375986957   -1.20893954281519
H         1.40824179063418    6.86176834742576   -1.36552297250891
C         5.27404293209341   10.39724925005360    5.29867707389942
C         6.10086637367354   10.06850344878217    4.22847297120872
H         6.36414685649120   10.81487443084745    3.49190484796858
C         6.59573550011283    8.78167980455237    4.10891182905977
H         7.22949232673264    8.52813976831248    3.27215320091643
C         6.27427167251788    7.81926176020127    5.05130205661072
H         6.66232407402933    6.81653796751225    4.95055106621096
C         5.45241883994207    8.14154390621224    6.11974372313297
H         5.19487950679769    7.38995144983340    6.85139757120202
C         4.95129154132095    9.42447949895535    6.24194248401300
H         4.28328724140529    9.68660639430775    7.05516584784090
C         5.46020596363647   13.20238729378131    4.59292821378501
C         6.84995675023037   13.12763170644683    4.65084672610625
H         7.31953178049494   12.29937981647781    5.16535617333175
C         7.62723481301467   14.10057867739586    4.04965571399609
H         8.70507268455386   14.03334012144976    4.09502444058420
C         7.02526605501756   15.16371975736299    3.39578150412923
H         7.63363651110140   15.92488621699043    2.92999888583447
C         5.64360978273786   15.25391352413308    3.35163533191858
H         5.17312109313666   16.08979898478976    2.85541218166506
C         4.86134402309032   14.28278118687957    3.95030121480469
H         3.78607998027324   14.37565711642610    3.95211748855049
Ru        4.18529779556422   12.65973718517207    7.66696832706416
Cl        2.25598775728890   11.29780916742876    7.61707546555270
Cl        2.91913420938029   14.33373116381104    6.59350259273390
C         4.91011875485211   11.73904357568267    9.66353011361951
C         4.24228331780354   12.96472270644735    9.95045551461074
H         3.45409990072508   12.98566549360215   10.69270283447429
C         4.62722333081474   14.14991966218769    9.32137623931029
H         4.12921737646651   15.08129980971888    9.57216372804994
C         5.69732200963419   14.17603452568133    8.38376456674614
C         6.36815461514383   12.96905723422136    8.11581775630068
H         7.24275598133898   12.97775857322237    7.47394885362097
C         5.98511177132089   11.76224058315661    8.75683413385781
H         6.56388941316271   10.86004582034414    8.58726204126930
C         4.62620745510160   10.47470337446343   10.44073608797048
H         4.89566893163559    9.62251410417482    9.80521249469582
C         3.16424216421836   10.31708028950052   10.85372099004246
H         2.89410039603184   11.02650079533832   11.63293013687062
H         3.00206968169111    9.31530033042180   11.24378135918165
H         2.51149673081868   10.46236636585839    9.99535295514721
C         5.53958584655264   10.46786012400790   11.67422975814639
H         5.31575433988378   11.31838653219554   12.31583647891738
H         6.58770590374585   10.52117600369857   11.38513241043493
H         5.38312204539943    9.55609686534054   12.24510683426222
C         6.10700903534902   15.46692042691395    7.74237879873893
H         6.92580098496241   15.31263222694182    7.04239757607075
H         6.41520804814897   16.18812312609181    8.49966333984337
H         5.26203957215470   15.88837975083723    7.19516845331168

