87
CSD_code = POBBEO | q = 0 | S = 0 | Stoichiometry = C34H45Cl2IrO3P2 | MND = 8
P         6.81095193246220    4.45809153005630   11.37787978247157
C         8.18960319461364    5.29198789828323   10.44383695205912
H         8.76270821047433    5.90620187940019   11.14650624297863
H         8.84624095097826    4.52339398162846   10.02647294826092
C         7.66042214906785    6.17685580364095    9.32288454115842
H         6.93992671969587    6.90802917046567    9.70399002635954
H         7.18283445729831    5.57737121355406    8.54743956496984
C         7.73335294031834    3.95323963446251   12.95881678901953
C         9.11711504673673    3.37635728543719   12.67867574985051
H         9.74330026144656    4.06342429252393   12.11374037830360
H         9.60335366328595    3.14524828468864   13.62943210122842
C         8.94139170049278    2.06074120048085   11.90772703755800
O         8.33920278825921    2.27361107506874   10.65359597641906
C         6.99040532306686    2.70144051019365   10.67083869590719
C         6.15479238644942    1.80717959818471   11.58735682434527
H         5.15872649004360    2.23192215116353   11.72388394083662
H         6.07509705211681    0.80353626503816   11.16479093661783
O         8.16771361371731    1.18756603328612   12.71364218292597
C         6.87495604360471    1.70872025511880   12.94133878529771
O         6.91724547031917    2.96344780332746   13.58853867573123
C         6.50483804296982    2.66118077316981    9.22584713076852
H         6.43103170996920    1.62971001695387    8.88796348866329
H         7.22180166559270    3.17295161545093    8.58811532935577
H         5.52953794041377    3.13748654957120    9.14673971672530
C         7.78922103686304    5.13533532046855   13.92089355086281
H         8.24016809052185    4.82675581309391   14.86144732526348
H         6.77899295202873    5.48676316513783   14.11843743500398
H         8.37590851308729    5.94304673398125   13.48951550887246
C        10.28127488484902    1.39020366847729   11.62995561424145
H        10.88488468957971    2.06049554140689   11.02588929631205
H        10.10812593949990    0.46712638547058   11.08569655925084
H        10.78307219717152    1.17146723527760   12.56664479604515
C         6.16127612062127    0.75754379783505   13.89743411245833
H         5.15677726509694    1.12342916028071   14.08380369957678
H         6.71273730283770    0.72275388085325   14.83182275519181
H         6.12687364853217   -0.23582083788717   13.46259128384994
Ir       10.88167999891045    6.02301014645365    7.67104194631473
Cl        9.25214672583703    4.41971817352740    7.12190318948295
Cl       11.36376469257596    4.98115396882925    9.74727548701083
P         9.06274900401065    7.11227408608822    8.57493708604529
C        12.89982850761526    6.92989397534803    7.48256464213237
C        12.92854807571804    5.63102887455814    6.84568140118013
C        12.04002367109696    5.66656563397355    5.74853408138427
C        11.40619656006167    6.95954737338919    5.72654327284466
C        11.99973010273133    7.75931406261728    6.75910632856553
C        13.84521015551655    7.35194456790073    8.55838927270858
H        13.82443103232031    6.64369306310702    9.38600928892276
H        13.59704923233463    8.34104650282468    8.93543848883639
H        14.86261189227440    7.37523057138791    8.16409861703241
C        13.88326411565307    4.54557125935661    7.22013104167964
H        13.63356278908849    3.61103821131549    6.72428778056316
H        13.86265463206409    4.37562852752829    8.29580321003790
H        14.89911483855540    4.83132945919926    6.94060985764737
C        11.80996096270208    4.60911339146351    4.72212085630109
H        12.06379942346034    4.99558560400278    3.73377021645052
H        10.76251922736951    4.30590053957641    4.70797817070313
H        12.41522924405271    3.72893324695511    4.92184303664412
C        10.53533842666300    7.43873847075782    4.61204942395287
H        11.14777449620101    7.67240141363127    3.73847513049393
H         9.98253038437453    8.33203435852064    4.89274368478495
H         9.82050217155348    6.66892852917671    4.32866779341865
C        11.82424078085080    9.23050735708713    6.95091507308681
H        11.77609974207472    9.49067723949238    8.00733269211726
H        10.91585968872928    9.58052625646926    6.46716096136356
H        12.67224264681824    9.75726238415820    6.50927227072886
C         8.21987343970776    8.08845368160856    7.29221994541748
C         7.51043183242128    7.39324454306736    6.31505301897779
H         7.47067237808343    6.31445455367741    6.35816899743500
C         6.89160000920268    8.07712004216829    5.28544071304436
H         6.33938238760685    7.53271563455829    4.53398958167072
C         6.98521336925205    9.45820240880860    5.21224494051921
H         6.50276704298140    9.99288212908191    4.40760594207310
C         7.70836205165186   10.15178343439294    6.16840855283379
H         7.79270114149111   11.22735403259779    6.10843665502314
C         8.32867652837130    9.47206875881198    7.20278625593221
H         8.89199278024816   10.01963911272465    7.94483850454974
C         9.40980166821437    8.30869503908291    9.90478835289267
C         8.42109547318043    9.18092233615924   10.35395457360202
H         7.44352560754571    9.17466351435732    9.89174676823632
C         8.68988315028682   10.06040800174450   11.38591526496155
H         7.91994335429001   10.73548950566503   11.72965571544543
C         9.94170026303129   10.07430853927222   11.98190343496050
H        10.14632892042452   10.76168852001008   12.78922499954061
C        10.92435376200288    9.20177011633974   11.54618146259728
H        11.89642427730494    9.20205028888419   12.01675975528974
C        10.65985513242614    8.32183514983584   10.51064355487041
H        11.40988981492473    7.61735872294532   10.18336297295208

