53
CSD_code = POBDUH | q = 0 | S = 0 | Stoichiometry = C24H18N8NiO2 | MND = 6
C         1.90238164499894    2.32859553373375    5.42987593134637
H         1.93698790477827    3.41058446318478    5.42696795831571
C         0.84157241914743    1.65765894953132    6.01932707433455
H         0.03985780858827    2.20827120886826    6.48431876664876
C         0.83902145996600    0.26869719200350    5.99521661278431
H         0.02814400550057   -0.28539544054602    6.44460782739464
C         1.88938190781201   -0.39187680473429    5.39172193283037
H         1.92833657560849   -1.46935365456537    5.35822955753325
C         2.92605429615437    0.35775495491941    4.82416349168863
C         4.07283543149841   -0.23085577456214    4.19505568551204
H         4.17115637579414   -1.30575527530927    4.09211181054031
C         6.98666058839123    1.00892383666355    2.85943819097498
C         9.59642543969902   -1.23114700528000    1.34022185986365
H         9.79928590664822   -2.27187808296550    1.12185473533054
C         8.41696856650656   -0.84727513685045    1.95658764810819
H         7.66447735014998   -1.56426224727953    2.24092973515264
C         8.21898081545507    0.50807667434246    2.20888858873279
C         9.21518372716945    1.40544365617696    1.83179664519867
H         9.08475541673794    2.45960235613235    2.02017859503329
C        10.35357870680520    0.90506423073996    1.22236998162400
H        11.15646313973946    1.56118288737672    0.91142821960366
C         3.69439083192312    2.47531268384430    1.02687597349360
H         3.66395518398723    1.39318928601377    1.02635672074752
C         3.37825310322267    3.19102207221661   -0.11804978502822
H         3.10088952633654    2.67555860051198   -1.02332105984256
C         3.42795021102998    4.57839049593018   -0.06840339075664
H         3.18744027897878    5.16671907410739   -0.94164007508404
C         3.79249257618091    5.19290957859410    1.11199043462839
H         3.85011970372264    6.26726443362176    1.18964747641471
C         4.10269913512087    4.39946385187630    2.22238863338243
C         4.51496125753793    4.93789430058647    3.48633575089458
H         4.56626442003368    6.00780853143508    3.65469141916807
C         5.61353123163168    3.57235773242608    6.44254143793570
C         6.93467903341928    3.53111925404978    9.94656861569228
H         7.28811537712427    2.84135116396684   10.70226003559631
C         6.51386496503617    3.08077613986642    8.70650352456050
H         6.52225979305435    2.03393087067758    8.44608388241328
C         6.07237256482049    4.01982910962753    7.77742262170816
C         6.07616344600394    5.36446626894049    8.14029651301922
H         5.74284359623392    6.11295489051523    7.44038228949566
C         6.51808263162696    5.69664058769129    9.41025808530679
H         6.54087110258390    6.72692509109841    9.74186132341663
N         2.91133070667285    1.70729057592446    4.84610069320749
N         5.00935703773368    0.56297174424604    3.76817111239177
N         6.07760263395041    0.07709904385069    3.18252964546363
N        10.54352939171796   -0.38098541424291    0.97912388257724
N         4.04086110408382    3.05242719185970    2.16335687087462
N         4.85010118159169    4.10391286659458    4.42523246097717
N         5.23172598178766    4.54402012041932    5.60048082334071
N         6.93718109195629    4.80693866301680   10.29511275667677
O         6.82964902200601    2.22993128278940    3.07552814184759
O         5.59087683969784    2.35746156497123    6.14975090314243
Ni        4.88767555204409    2.33489182139409    4.07807143378822

