105
CSD_code = POBDIU | q = 0 | S = 0 | Stoichiometry = C47H43O5S9Y | MND = 5
Y         4.36124932415570    1.02635974678949   12.53321135269109
S         8.35761602232892    4.66860163276361   11.59577753350250
S         8.28647216190680    1.05674985388506   14.58916172344632
S         7.20714001992513   -0.25557605818447   10.83599838320171
S         1.64033672791119   -1.64201611375443   13.86157302042085
S         5.26338280408368   -4.21728281355677   13.61254779945774
S         2.70897754068186   -2.84344257937691    9.83778165413066
S         2.51102005632579    5.14852786467349   12.43066750719897
S         1.61386024889493    1.83483561667834   15.08455960595050
S         1.28353634686270    0.18111528966843   10.93115095715664
O         6.26814995812498    1.47821965896752   12.87500602855731
O         3.70027965417360   -0.77032824570991   12.25615595738594
O         3.05397595141866    2.52225639316150   12.60926040882875
O         4.52311896442328    1.44287021091589   10.11992828349119
O         4.41706872246500    0.97227100909845   14.94618319109096
C         7.33370161694411    2.08503613638075   12.23643729083439
C         7.11454909109578    3.57748846870742   12.11083501348754
C         5.97272080046032    4.24950036413480   12.42375201790096
H         5.07529221932368    3.75904130335693   12.77377573040180
C         7.30769311917316    6.01985490809446   11.79418237348329
H         7.67440443486041    7.00147273476251   11.56995085241972
C         6.08281443387698    5.64782167059281   12.23736278879297
H         5.27598196164897    6.33112488297377   12.42991364071113
C         8.56879144419625    1.82805084177256   13.07650718334763
C         9.88885630910394    2.05860359188862   12.85353658927407
H        10.27031406377459    2.51969326639177   11.96013927922982
C        10.69841202367233    1.62344156166615   13.92794813758284
H        11.76949917188935    1.72218503937582   13.94139290634157
C         9.97524964719418    1.06598851796182   14.93122004349564
H        10.33075666594249    0.65615523371610   15.85556050237215
C         7.57501499005327    1.43243825800182   10.89288381632171
C         8.07703029085575    1.88399600463286    9.71327371709979
H         8.37473259911491    2.90229091455547    9.53698070571205
C         8.16698307195424    0.86433279025725    8.73646150158698
H         8.53744659923044    1.02876869558167    7.73953252632456
C         7.73492148635717   -0.33686501621653    9.19633907073564
H         7.70043339531185   -1.27316529079439    8.67517441444921
C         3.84742104147912   -2.14334204645467   12.31506814685515
C         2.59928754075830   -2.72861556266254   12.93126848465258
C         2.07748961929908   -3.98334065074707   12.90554733991570
H         2.52619676893864   -4.80484919291303   12.37578426557571
C         0.52743008076216   -2.90600474245059   14.22580092442272
H        -0.32482286292407   -2.69325941595814   14.83948519739726
C         0.88152926223433   -4.08330551184025   13.65272790919113
H         0.31691010013868   -4.99361658879916   13.74950385610580
C         5.03503764312700   -2.56050017273568   13.16190664877833
C         6.03693499484029   -1.77705163979083   13.64208940867669
H         6.09355530200333   -0.71068926550381   13.47053177457003
C         7.00264306998767   -2.50264136830646   14.38037818089030
H         7.86544563601478   -2.04525471732341   14.83097351447886
C         6.71945003165220   -3.82624760875020   14.44650276420954
H         7.26967600142460   -4.60715734798101   14.93220133562880
C         4.05316255102914   -2.68373928032090   10.91301458648331
C         5.22384461659244   -2.97866674932804   10.28480624803434
H         6.18177472712834   -2.94532364416305   10.77281030185982
C         5.04865151553167   -3.34641749322254    8.93113665078776
H         5.85826469647407   -3.62617764628489    8.28044305163112
C         3.74798522891741   -3.31801826980985    8.54917900446238
H         3.32679173797297   -3.55376042189039    7.59232178731677
C         1.67856791581152    2.53956590336983   12.39863148545137
C         1.24357524226491    3.98657222853626   12.39621453814108
C         0.01282747164682    4.56357346113936   12.38732677206995
H        -0.90472978609569    4.00320797479093   12.37294523225857
C         0.08172607770464    5.97535537477862   12.39885603007374
H        -0.78487794849766    6.61283659153519   12.39380694400310
C         1.35966480082193    6.43156132315452   12.42007692140899
H         1.69898725621554    7.44804862564602   12.43456992784620
C         0.92448128520778    1.84399717714054   13.50821269070403
C        -0.30281940786597    1.25418364500876   13.49363614842288
H        -0.90939540630389    1.16252800762938   12.60999519642562
C        -0.68901161013899    0.76427649871068   14.76035207795197
H        -1.61969749730362    0.25675027659803   14.94169624847462
C         0.24444018412622    1.00437049801540   15.71494114004779
H         0.21399970944870    0.74520602922635   16.75447535080012
C         1.30733504720969    1.90277640001783   11.07606271131173
C         0.98919694889548    2.50914088834300    9.89650260168587
H         0.93553583002765    3.57707177162709    9.77277507124569
C         0.71275157960693    1.58814512026826    8.86242982772223
H         0.42763186223483    1.87967882878356    7.86645752503596
C         0.83074126196922    0.29891306237702    9.27446777549717
H         0.67501251614620   -0.59771024964355    8.70709980964049
C         4.30109421131433    0.51200295077600    9.04212860606370
H         3.42693028242885   -0.10328511984344    9.27018517219916
H         5.17901565502797   -0.13984211474039    8.96958201642485
C         4.11795479474764    1.33311705114860    7.76782919507653
H         4.52444107080340    0.82277489308970    6.89801380564451
H         3.06042680587686    1.53837685544996    7.59940686048490
C         4.85912365409896    2.62233527335202    8.10680551873231
H         4.52854723668788    3.47498029653256    7.51911558572050
H         5.93393122187787    2.48881075432710    7.97853412142382
C         4.52230696263407    2.77410721706960    9.58368307888483
H         5.25389623312684    3.36418303440194   10.14141170606383
H         3.52631208549231    3.21799083158163    9.71532841547433
C         4.95586583700755    2.14586875301839   15.58685556171838
H         4.20293571875549    2.94062755540456   15.51379207144420
H         5.85942224227435    2.45147091903518   15.05194244071919
C         5.23321512683128    1.76988905176758   17.04024972117786
H         6.25501484434086    1.40439760053759   17.14723671704627
H         5.08370328652564    2.60989077224132   17.71391364004585
C         4.24069818649404    0.63446880073058   17.26807709203151
H         3.24166428434500    1.03399755045317   17.44268096906053
H         4.51828055390386   -0.02083275993472   18.08994373560826
C         4.29787633107012   -0.07097532240681   15.91994670649675
H         5.17762663914468   -0.72673731594418   15.86751029739505
H         3.40053015880823   -0.64990397158612   15.68729004846237

