37
CSD_code = POBFIV | q = 0 | S = 0 | Stoichiometry = C12H16N2O4PtS2 | MND = 4
Pt        5.66814176491896    6.46330289092207   -0.92768756506991
S         3.40385673991325    1.52091460055728    0.82999207185327
S         1.13469341082721    3.38191707548316    0.67995494419572
O         5.99626612290260    4.54754258865467   -0.46217836513364
O         3.69510148703303    6.43366487268926   -0.61144529867653
C         5.07644253560959    3.72551042966430   -0.06350605488128
O         5.39238075868680    2.56031961071662    0.21207664631603
C         3.03805813293954    5.39582479773876   -0.19711470494486
O         1.81562942377246    5.49096014424839   -0.02349228497160
C         3.67334123751055    4.10792909322547    0.06502996016504
C         2.82271773234250    3.10437697494550    0.48517777927269
N         7.74464805931923    6.41614419476250   -1.25497849230989
H         7.88434077641367    5.46107797399526   -0.90331535297745
H         8.33540341098677    7.03829276328282   -0.70328184304430
N         5.24454504131653    8.46251389600972   -1.41931446355320
H         5.70174437081290    9.20261501837045   -0.88658686815623
H         4.25843932450817    8.43571274605587   -1.13277795526430
C         1.82221896530676    0.89622272498937    1.25421156562385
H         1.77088600166492   -0.13693502217063    1.54550423005268
C         0.79500041198688    1.73875290243392    1.18626084470755
H        -0.22860499898605    1.50297961809982    1.41325175774857
C         8.12358736179945    6.44822482989901   -2.65829779942436
H         8.33896635452354    7.44764946819824   -3.01656675644026
C         8.88800086658812    5.29660011846960   -3.23885286532703
H         9.15034921153454    4.48122167322858   -2.58217811820367
H         9.62421021323430    5.49530716701425   -4.00239776784154
C         7.43685855438730    5.48241067364577   -3.57506308699136
H         6.72352944825341    4.80559670765181   -3.12476484810975
H         7.17248668976924    5.80782970305953   -4.56798892524605
C         5.29925247202116    8.73866444546648   -2.84550430262214
H         6.26861816470995    9.09672028359379   -3.17042922617441
C         4.52246606338531    7.83068726455048   -3.74920634888243
H         4.94987247317431    7.55517267415815   -4.69946138201755
H         3.94835264831085    7.04559254221651   -3.27662053960616
C         4.07393095432256    9.24841351183780   -3.54312506386279
H         3.18623563659899    9.41274871378211   -2.95165804832280
H         4.19343217760438    9.95072032855502   -4.35366547187034

