87
CSD_code = POBKIB | q = 0 | S = 0 | Stoichiometry = C37H40BIrN8 | MND = 6
Ir        0.32030648382568    7.91483497270860   16.35005326415216
N        -1.03406740046876    9.35882915524260   17.11388567891542
N        -1.56314685157147    9.12864711167375   18.32933068765367
N        -1.04758254754386    6.42100318519715   17.29476851716876
N        -1.36898681465405    6.65262331398829   18.57443356423901
N         1.28157705484496    7.99372022491567   18.35393324399296
N         0.45740098846510    8.13203628458844   19.40306123136384
N         1.56247028175882    6.01529375015909   14.41812168328011
H         1.16565092244467    6.61822131309463   13.69011738833911
N         1.62263934303516    5.80272819110610   11.84088011984997
C        -1.65307899046236   10.41456176291829   16.59053256482482
C        -2.61042067188671   10.87523363294149   17.49857667348222
H        -3.27170241977829   11.70878926169783   17.37303627256177
C        -2.52618854944544   10.03264980899528   18.58969833071238
C        -1.35759733666705   10.99809947875501   15.25528673675130
H        -0.35113879597476   10.74322129081716   14.93950376770716
H        -1.46635564810827   12.08030115491320   15.29731357481430
H        -2.05605400100412   10.61065716962958   14.51433535701677
C        -3.32946288783910   10.06974827319232   19.84068965329690
H        -3.87123769662950    9.13544803111722   19.97961972598272
H        -4.04546713205501   10.88576429286362   19.78377092794112
H        -2.69134557278119   10.22265934684655   20.70971426319189
C        -1.45307984828722    5.19400555026775   16.98591484766895
C        -2.05250268693223    4.61541729853141   18.10887681865828
H        -2.48173405769238    3.63629013653872   18.18261932802991
C        -1.97863143198357    5.57432577900534   19.10158704196611
C        -1.28937024307055    4.56924745069641   15.64433135668676
H        -1.17947455340374    5.33288711880747   14.87967927802418
H        -2.16082723426287    3.95743526824482   15.41800109381059
H        -0.41039767884505    3.92343097049323   15.62785035106103
C        -2.45698606341893    5.48638765350284   20.50657518193777
H        -1.63195443223301    5.62528527935731   21.20381031914542
H        -2.90038754092571    4.50847760018538   20.67695832809046
H        -3.20391286051448    6.25169272568251   20.71164480718550
C         2.52810038557728    8.13287345001955   18.79119719520886
C         2.50460492217712    8.36587749718458   20.17019935869800
H         3.34613465631445    8.51886025119502   20.81560842431647
C         1.16883825972879    8.36172160149315   20.52317820079631
C         3.73662855909419    8.05388483653459   17.92796357509296
H         3.50972313826801    7.55140752530117   16.99294727284266
H         4.53171818654417    7.52282865204703   18.44933399293149
H         4.09089143728132    9.05703035370171   17.69262855307570
C         0.57050632685947    8.57194836489561   21.86812456573551
H        -0.01317295520026    7.70559813793002   22.17586528535706
H        -0.08888522640050    9.43855232528945   21.86475356281326
H         1.36317911724427    8.73711961992507   22.59358493173536
C         1.39693295997583    6.37151514648356   15.71731677261604
C         1.94176418363452    5.42354482719503   16.62615652282848
H         1.84982985502837    5.61520116113799   17.68328762684031
C         2.57431847916975    4.28138940544803   16.20722543856844
H         2.97908951121474    3.58368264827263   16.92621486787981
C         2.70090371037821    4.00138670368048   14.83864286584562
H         3.19878097158908    3.10502064108773   14.50968310188260
C         2.16754037203695    4.90105145436040   13.94743188242784
C         2.18579197350862    4.77817749788099   12.48547392103943
C         2.73633159609768    3.69410402723993   11.80181242995357
H         3.18753621025989    2.87176951635839   12.33259815900003
C         2.69165903183760    3.69249972089590   10.41801513251686
H         3.11061813365841    2.86676094970954    9.86160523976389
C         2.10360480262459    4.76061569810127    9.75823240811279
H         2.05115816093680    4.79185543682372    8.68177749301821
C         1.58225895159715    5.79325118502975   10.52641591090591
H         1.11017268357444    6.65314998583960   10.07114902579833
C         1.71258615887577    9.31273568086069   15.75413957291557
C         1.77233381425125   10.51438988649950   16.46924325976295
H         1.05308588337453   10.71996941691831   17.24973780329885
C         2.73291687068666   11.48156268511928   16.22609345197704
H         2.73165009962128   12.39447571921195   16.80706465332885
C         3.69274499737683   11.28563208506486   15.25020000990598
H         4.44394506505681   12.03809162497269   15.05538668026063
C         3.67642929468412   10.10251434352258   14.53588846404593
H         4.42552659596232    9.91985245907450   13.77644756971187
C         2.71068137849012    9.14132793995027   14.78869711505969
H         2.76718160022404    8.22828035930403   14.21102674591576
C        -0.72474986300438    7.97950667660966   14.57626021832821
C        -2.09802631835632    7.71254718621656   14.62560237855194
H        -2.57160440727349    7.47937840939278   15.56938804648573
C        -2.90240054033401    7.73642720821587   13.49885706876782
H        -3.95868808808235    7.51936769802336   13.59028459122846
C        -2.36490220884646    8.03985360477178   12.26068426152806
H        -2.99042086509748    8.05870392169196   11.37913175071177
C        -1.01736277448481    8.33480939393160   12.17818102339684
H        -0.58020024087777    8.60137357517542   11.22530804443682
C        -0.21986522684805    8.30500123197595   13.31167574828665
H         0.81498883657887    8.59454659903024   13.19611545313603
B        -1.06369201735040    8.00151407382220   19.24458502197701
H        -1.59286956513331    8.06270576089040   20.29786536989305

