66
CSD_code = POBMEB | q = 0 | S = 0 | Stoichiometry = C26H34AuI2N3 | MND = 2
Au        5.01003748224289    5.34260198033188    5.21486098897541
I         6.30800825190322    7.94583182952945    2.18733370986658
N         4.22215532309666    9.27755248954766    3.90803595263096
C         4.91884769888552    8.13214890386890    3.71971201783927
N         3.41304252330202    9.16608932475257    4.92056468680096
I         5.50799224370886    2.97382751539238    6.01917392320161
C         4.51625444720192    7.22641616317078    4.69123845109144
C         4.32677620606818   10.47037522727132    3.14822143157031
N         3.59771059987432    7.94667638394518    5.37358051414074
C         5.36590059294581   12.57461564519771    2.76774780573986
H         6.08336577305273   13.33433808261128    3.03022924267961
C         4.53850964739497   12.76609469164554    1.67731357980364
H         4.61911007976811   13.67409638343479    1.09917941082740
C         3.60837944687986   11.80808175519985    1.31872326135024
H         2.97394652167289   11.97810016804193    0.46482829877849
C         3.48549335903970   10.63319188230857    2.04672308210503
C         5.28110251827713   11.41539078804062    3.52627674397509
C         2.45370466904861    9.58255887101468    1.71218279973279
H         2.82718049314691    8.60358843676462    2.03662927987257
C         2.16851264666671    9.48116744929514    0.21495327212106
H         1.56836096100736    8.59600954041900    0.01777031682825
H         3.09575448203737    9.39974695807697   -0.34776475779598
H         1.61416321663818   10.34560216934037   -0.14072068313848
C         1.16853900685185    9.88859798995145    2.48987041139196
H         0.77765004095146   10.86053704243420    2.19735500787691
H         1.35909919631349    9.90408196843085    3.56150350987517
H         0.41480853495279    9.13370464760139    2.27969780497744
C         2.87925188104937    7.44795525686120    6.49186348336545
C         1.04025618462790    6.21591702362815    7.37053602585805
H         0.12707957765141    5.65949701940351    7.23184553482358
C         1.55556520972294    6.37318622759344    8.64261020774776
H         1.04155342591569    5.93996239223636    9.48704423146760
C         2.73061467789347    7.07248072801872    8.83900277664923
H         3.12583269209016    7.17867415634909    9.83665003328197
C         3.41736507597807    7.62583781949798    7.76691607919175
C         4.72034458919688    8.35625098447435    7.98704348267208
H         5.06665016358169    8.77704510430303    7.03708899049140
C         4.53977949804077    9.51855200066281    8.96516985963235
H         5.47161214996496   10.07145570983071    9.05973391438446
H         4.25809598068350    9.15928935339553    9.95084755166841
H         3.76698184401090   10.19823915915749    8.61172090428762
C         5.78772373386059    7.37863866904582    8.48486152260281
H         5.91041715899214    6.55778983951117    7.77986173032928
H         5.50961480105729    6.95929347396435    9.44781557949543
H         6.74317615894133    7.88733444106660    8.59174179178015
C         1.13765756751625    6.54571347104291    4.87774706313272
H         1.75017987645249    7.09780608391077    4.15683921397564
C        -0.29146058080257    7.08146193549724    4.77218482519826
H        -0.64818877830723    6.98516462859720    3.74917241193084
H        -0.32777985859402    8.13131144896628    5.05600887664353
H        -0.96489176365562    6.52616756045709    5.41878173000624
C         1.19669482207466    5.06220088648060    4.50593710445927
H         0.84783502090760    4.91580689146689    3.48621103346263
H         0.57532717626697    4.47067354773542    5.17256755243050
H         2.21854631391160    4.69259469331630    4.57739219321170
C         6.13981511162720   11.19660440065708    4.74887332093378
H         6.23336944546404   10.11989707793925    4.93308302483915
C         7.55545479031993   11.74720378783359    4.58494236048906
H         7.99713694166446   11.39573348039781    3.65518783415832
H         8.17647810205229   11.40712885871242    5.41033854545118
H         7.56081157789435   12.83369041227168    4.58877725084343
C         5.44266190502197   11.82915101223557    5.95822833749123
H         5.32463205211278   12.89941745094724    5.80544117579957
H         6.03317391141422   11.66967787844959    6.85709338674573
H         4.45647283947885   11.39260925010475    6.10568972973074
C         1.69125276099666    6.75116159636819    6.26742926622398

