59
CSD_code = POBNOK | q = 0 | S = 0 | Stoichiometry = C28H24ClN3P2Pd | MND = 4
Pd        4.90334873732913    5.74224400987787   10.15323785910950
P         6.89664330865484    5.21501847886648    9.20613649726015
P         3.38293212172018    6.99852326883443   11.26165863895401
Cl        3.70590505624378    3.88339823857605    9.61289570766768
N         5.60272805694039    8.35908066048048   11.37868303762955
N         6.57860473217842    9.27665038139929   11.40159309615480
N         7.53263397091461    8.87371064225729   10.63594190923971
C         5.94661220136676    7.33425411677481   10.57275967907223
C         7.19731197525735    7.68147209871931   10.09634664995800
C         7.91182593912950    6.78143011508409    9.14042574524824
H         8.94524850101348    6.58679106648944    9.43942780577840
H         7.91546466185610    7.19550074814552    8.12701401961020
C         4.35692103815031    8.37124539211978   12.08976383835163
H         3.87030534728184    9.34919632142220   12.00115216924800
H         4.51853423071722    8.14019401222162   13.15189616326643
C         7.75352256542608    4.25889238709552   10.49045632591127
C         9.09336781442324    3.89779945749003   10.37479396662255
H         9.64513002871113    4.15771055810059    9.48096724651102
C         9.71002582043125    3.20437322736602   11.39952525595897
H        10.74865354956695    2.92170818861793   11.30915077564497
C         8.99782967141561    2.87285960935632   12.54199352500111
H         9.48431656248655    2.33150061229541   13.33977965562948
C         7.66538209861656    3.23255392418340   12.66299673037694
H         7.11380154446222    2.97094776533298   13.55386582522851
C         7.04018298104067    3.92495735363484   11.64049693495093
H         5.97654338618386    4.19917536645404   11.72622947520747
C         7.19032326649895    4.36372656793772    7.63492058712667
C         6.84105655250336    5.05129586847116    6.47406941296589
H         6.46359411020336    6.06489966678488    6.55029538336222
C         6.95900622715186    4.43818484565116    5.24220772399816
H         6.69192077729255    4.97395201186677    4.34311004064224
C         7.40873975049389    3.12903875573172    5.16372101012031
H         7.49770406828534    2.64722698723751    4.20140786629466
C         7.72503322595511    2.43231594856694    6.31820663793376
H         8.05508334392622    1.40577917766346    6.25585254944326
C         7.60968834522920    3.04098727169060    7.55553824541144
H         7.83651962730540    2.49089805343573    8.45763399252409
C         2.55563783960575    7.91078079759321    9.91647871646416
C         1.59068683623508    8.88044021564317   10.17101214640225
H         1.29262347095807    9.08968667554170   11.18938161177208
C         1.00798034737680    9.56370409374951    9.11981843131205
H         0.25944071098434   10.31680342471602    9.31733786565582
C         1.38063661177314    9.28151206425825    7.81489179154199
H         0.92312612502404    9.81829821361554    6.99725146185034
C         2.33158248254527    8.30767988112142    7.55635532771056
H         2.61114709539505    8.08255235487855    6.53781002124649
C         2.91938316686976    7.61876580390638    8.60265451506074
H         3.65971630823403    6.82820040122912    8.39841855609358
C         2.02748859285657    6.59448825689780   12.39399721672679
C         1.59154192217185    7.42277303895104   13.42270423318523
H         2.08269904178616    8.36648000586501   13.61446925932897
C         0.52314558784812    7.02725881438223   14.20788502230730
H         0.18047032583179    7.66779613429183   15.00752819593245
C        -0.10591388262048    5.81489694835484   13.97292336558639
H        -0.93863028271359    5.51461759202043   14.59156929542240
C         0.33485891998635    4.98540387124016   12.95378345607673
H        -0.15054547622858    4.03733296847931   12.77765648658746
C         1.40269448424384    5.37052896511958   12.16491786907318
H         1.77278457537557    4.72900632198244   11.37350317126868

