62
CSD_code = POBPEE | q = 0 | S = 0 | Stoichiometry = C22H29Cl2IrN6O2 | MND = 8
Ir       11.45727257167577    4.63813713756588   17.88627667336531
Cl       13.61112577960352    3.69655406911095   17.62228320694945
Cl       10.55559118762951    2.57293825334961   17.19606844973784
O         6.87135874350677    3.69355678800198    9.23876421492808
O         7.59810393832839    6.22364468990163   12.95747942078826
N         7.23859386605935    4.91945837880399   11.10773036258372
N         8.07394179255527    2.71887060376482   10.89560684624009
N         9.07275626851940    3.76178257950352   14.08414748326569
N         9.29181949182418    1.92804734809153   12.84598205020515
N        10.41625671026853    5.42185762629188   15.12466184512264
N        12.39619955482983    6.19292199710411   15.44710209595274
C         7.36460032554134    3.76336585910205   10.34259873743567
C         8.59271821213031    2.84855066300872   12.14406185470368
C         8.44204000892755    4.01287574208583   12.88210219377537
C         7.74458465168068    5.15371075223799   12.38396468973360
C         9.56107328881938    2.50513684382429   13.99325851336626
H        10.09497988218326    2.04332467972157   14.80116987888756
C         6.48400656994587    5.98906683201015   10.47559480144034
H         6.96925100221675    6.28486277419072    9.54601145646926
H         6.45151500202621    6.82451018754776   11.17101532478662
H         5.47650562594309    5.64382212509126   10.24651995889058
C         8.25031380131732    1.48611790018403   10.15888903664968
H         7.84780205857192    0.65536786882890   10.73726514225643
H         9.31157054570814    1.31115005316143    9.98423764183978
H         7.72191978624386    1.58410413364721    9.21289398867561
C         9.17805934300564    4.67826718597463   15.18714491015833
H         8.33998613245787    5.38081306245074   15.11663694212042
H         9.16301797286485    4.10693566201931   16.12147038371288
C        11.46785617831698    5.37430999615649   15.98345837788009
C        10.69083891294502    6.26101757628352   14.07702589340747
H         9.97311835695240    6.46014666577546   13.30870423012449
C        11.93487932739610    6.74261005658614   14.28211494868128
H        12.52424418511313    7.42100487245957   13.70060900637072
C        13.69954062453512    6.50831810747636   15.96948824005190
H        13.68940953356463    7.49170112560035   16.44164094653803
H        14.42170787514583    6.51544634527862   15.15452713712521
H        13.99087146541854    5.75039253731814   16.69656030187301
C        10.68846954506975    6.54641467154709   18.80233925364347
C        11.91810776507960    6.17843319214473   19.42454109719369
C        11.70262323662507    4.93615393463749   20.13827022594242
C        10.38140298409661    4.52283585339961   19.90723854182034
C         9.75544540962557    5.48761167568545   19.02689026797396
C        10.38281158753769    7.85117558874441   18.13837220553203
H         9.95809759880643    8.53954548780656   18.87107357337847
H         9.66034316128133    7.72835351978539   17.33414016294869
H        11.28021000083989    8.30743496394110   17.72732806835126
C        13.13432720747114    7.02677640951612   19.60178808845270
H        13.13078157733741    7.87551020835874   18.92305893570139
H        14.03630081394902    6.44253535539401   19.43004437237762
H        13.17011123340339    7.40692931321430   20.62431049291948
C        12.72000654122486    4.31963183023816   21.03971630790296
H        12.94040550702528    4.99435195938773   21.86841069780622
H        13.64681819617872    4.13591835249457   20.49674464163450
H        12.36934860020217    3.37290965409483   21.44220120044560
C         9.65997655450735    3.36070183572008   20.50411170648499
H        10.30928810566951    2.79083942159524   21.16350416177623
H         9.29636766074959    2.69141171210074   19.72391138249959
H         8.80020231155922    3.71343028343645   21.07515063558927
C         8.29409674565038    5.50787059546948   18.71388207402141
H         7.73741239818828    5.87871246885571   19.57698518886479
H         7.93522783459997    4.50575422784930   18.48868456069989
H         8.07888685031171    6.15625840447838   17.86783496981542

