54
CSD_code = POBSUU | q = -1 | S = 0 | Stoichiometry = C20H30P3Zr(1-) | MND = 13
Zr        3.54774474673173    3.93814418302638    0.09084580208354
P         5.19509981874215    4.69294631531509    1.84319102909783
P         4.88844814581055    5.34064984714974   -1.51495682083342
P         5.96358839299827    5.75307335365158    0.22128810478570
C         2.91517735791284    0.93930345233015    0.43872559174607
C         2.65170493819595    1.18649237109809   -0.92820024509494
C         3.76405252277003    1.85842131622825   -1.47945570662782
C         4.75284933341783    1.99663283496731   -0.45092912271012
C         4.19107814311591    1.45222357682175    0.74727180639441
C         2.10746200646970    0.07777560198147    1.36779626657304
C         3.99533385397910    2.17397146265750   -2.93511003128901
C         1.50571893184162    0.61865908941975   -1.71781493747209
C         6.21958156820680    2.27608497872056   -0.66707452987523
C         4.93945890460469    1.22821807146015    2.03324062497026
C         1.06141487815547    3.90435472968825    0.70854730007398
C         1.12458586651641    4.49004742643326   -0.58496814497000
C         1.80150207754998    5.73199282026720   -0.47483251133492
C         2.16999319568128    5.91494488608653    0.88200516589681
C         1.72401153604623    4.78047766550754    1.61387925350006
C         0.14138959264033    2.78730807621909    1.11896541634269
C         1.91081612216612    6.75916899161660   -1.56681493221380
C         0.44832574958644    4.02077286243550   -1.84543365481029
C         2.82288730629981    7.14918909234464    1.43741864114136
C         1.85520896739636    4.60348619853033    3.10407045011769
H         4.44796593960887    3.16532315173070   -3.05203423239433
H         4.66871918805233    1.43811541393585   -3.38581392552259
H         3.06059300491474    2.15348088063410   -3.49605906315166
H         0.60310547461336    0.51939859757863   -1.11471726721350
H         1.27031700050408    1.23444221026870   -2.58456033636370
H         1.76084182867196   -0.38110645417133   -2.08361925348411
H         2.06663326581925    0.49955050564088    2.37343699838367
H         1.08932845963972   -0.05801427222770    1.00890999809934
H         2.56307419506849   -0.91380939237750    1.44972026810932
H         4.25386552675072    1.15567856839237    2.87848714279632
H         5.51534360185664    0.29797119135736    1.98593194062915
H         5.63240650268880    2.05059676674058    2.22753344642958
H         6.64289532719593    2.84237897086420    0.17148824944845
H         6.77418833866457    1.33530917877558   -0.75693869843879
H         6.37738083307368    2.86106313750531   -1.57664798052284
H        -0.06299844747070    3.07313879771857   -1.68980436794331
H        -0.29683908680603    4.75277728211702   -2.17090951857049
H         1.16966177835894    3.90165439212917   -2.66056943893732
H        -0.84832647334689    3.19110906444283    1.36161152349116
H         0.01133440092526    2.05965180796714    0.32170420234744
H         0.50747367329429    2.26617936768255    2.00160550086753
H         1.54495332067253    3.60368165317686    3.40953021903897
H         2.89546641750846    4.75012513412104    3.41574139388915
H         1.23332289865073    5.32713039290455    3.63958267846692
H         3.10885758920859    7.00032388326345    2.47801562875572
H         3.73235113698355    7.38927131130369    0.87282364622450
H         2.14684418791700    8.00764315259274    1.37573097306807
H         2.74386895474396    7.43495933050083   -1.37513421289002
H         2.08091578576214    6.28537353627980   -2.53482137279387
H         0.99092141964129    7.35176323518810   -1.62857895732497

