87
CSD_code = POBTUV | q = 0 | S = 0 | Stoichiometry = C42H42P2Pd | MND = 2
Pd        0.00005655729072    0.00002020803918    0.00001508429708
P        -0.57460320482748    1.90219056446390    1.13114438298043
C        -2.30801113752654    1.96783527923528    1.67976891737762
C        -2.64518705194771    2.35172988335462    2.97389847025236
C        -3.96188355982865    2.33165665319543    3.39459562705735
C        -4.95402164264326    1.91407843734773    2.52398446133544
C        -4.62509843562421    1.52309578070067    1.23792130721397
C        -3.31023715982528    1.54324489651225    0.79348821840518
C        -2.97407305913359    1.12781825707612   -0.60276110605413
C        -0.36215614628941    3.44130082850795    0.18465995173543
C        -1.35398602041360    4.41659736593426    0.15466184336951
C        -1.20367874360795    5.55105702912371   -0.62084053832433
C        -0.06027566249336    5.71356972098643   -1.38439808661495
C         0.92651529499918    4.74364452182862   -1.36602510153322
C         0.79825526760272    3.60073367867145   -0.58873682485396
C         1.87941367674826    2.56819928729995   -0.57321613230554
C         0.37180525578532    2.20067249706947    2.65602271428205
C         0.91125823431691    3.45109852577472    2.94109780884532
C         1.68136105556548    3.64525095359869    4.07257436723134
C         1.92818172136237    2.58263924072093    4.92507032854790
C         1.40214630425799    1.33411019773121    4.64326085247331
C         0.62078439767027    1.11976636821349    3.51612550306489
C         0.05211598164535   -0.23356643655471    3.23269991843463
H        -1.86736677942172    2.67180787602466    3.65380559295165
H        -4.21214601596099    2.63963520464074    4.39932412606132
H        -5.98474502951147    1.89219847106901    2.84673290093619
H        -5.40462994712921    1.19569883787693    0.56397933754022
H        -2.20544939387346    0.32843277084719   -0.58976924843951
H        -3.85342847489331    0.75830796613357   -1.12560514876396
H        -2.56327400235067    1.97390355574197   -1.16000950881596
H        -2.24854061395060    4.28421490535967    0.74801888612937
H        -1.97720265974440    6.30506484816029   -0.62979424473811
H         0.06297273089193    6.59604116525802   -1.99518058214899
H         1.81570427449944    4.87549196156979   -1.96687293516063
H         1.46171839932965    1.57272634638083   -0.82737495361299
H         2.32044857610922    2.49791181919312    0.42456527214370
H         2.66421863082464    2.80987521514158   -1.28644911777779
H         0.72112706472364    4.27809958247467    2.27052299440497
H         2.08833552696310    4.62265931148982    4.28715579984750
H         2.53167901987559    2.72596087584477    5.80952674109942
H         1.60161452212693    0.50788670465784    5.31156300148394
H        -1.03966212031583   -0.20202503640149    3.27928227500013
H         0.33620589745736   -0.56217845637170    2.21233659839727
H         0.41158571538811   -0.96890815152246    3.94920352982293
P         0.57461720727192   -1.90219945235167   -1.13114160417632
C         2.30801723205514   -1.96787518514149   -1.67978642184781
C         0.36215005716384   -3.44130256222948   -0.18465221547580
C        -0.37181814218534   -2.20064603253263   -2.65600965011225
C         2.64517485530632   -2.35177133770051   -2.97392190014456
C         3.31025619849322   -1.54329666423034   -0.79351634201897
C         1.35396322922233   -4.41661752727864   -0.15466649496581
C        -0.79825498536959   -3.60071482247852    0.58875603285341
C        -0.91129528968845   -3.45106917420032   -2.94108981606987
C        -0.62077607142516   -1.11973561308992   -3.51610217484521
C         3.96186626949202   -2.33170963805684   -3.39463311221176
H         1.86734262694866   -2.67184231698664   -3.65381881807011
C         4.62511396691794   -1.52315870298150   -1.23796421124057
C         2.97411199347316   -1.12786754055748    0.60273801643912
C         1.20364386829746   -5.55107306523309    0.62083674394254
H         2.24851202161606   -4.28424721464096   -0.74803492336263
C        -0.92652948291819   -4.74362585185912    1.36604354822283
C        -1.87939520732138   -2.56816155893287    0.57324959134117
C        -1.68139878272997   -3.64519859881475   -4.07256268027946
H        -0.72117027203701   -4.27807091376021   -2.27051425519178
C        -1.40215010465156   -1.33405744724345   -4.64324171492357
C        -0.05208087454265    0.23358963053872   -3.23268045330395
C         4.95401869554113   -1.91414174441292   -2.52403169357524
H         4.21211703551112   -2.63968728433747   -4.39936533052885
H         5.40465428546733   -1.19576892760882   -0.56402887764122
H         2.20549057673673   -0.32848048491885    0.58975464830173
H         3.85347431925696   -0.75835836834235    1.12557078358665
H         2.56331764361575   -1.97395060249384    1.15999301244835
C         0.06024432561252   -5.71356678256256    1.38440550155768
H         1.97715406082755   -6.30509476372541    0.62978518913463
H        -1.81571615359739   -4.87545728092895    1.96689831795273
H        -1.46167920132204   -1.57269858450780    0.82741286106171
H        -2.32043446480022   -2.49785810497447   -0.42452867061711
H        -2.66419921803648   -2.80982799250268    1.28648667265943
C        -1.92820583850347   -2.58257263690406   -4.92505437354431
H        -2.08839397925734   -4.62259811311870   -4.28715493419475
H        -1.60159930008450   -0.50781693140098   -5.31152852056167
H         1.03969713503255    0.20203237402024   -3.27927428591332
H        -0.33615433232947    0.56220084214646   -2.21231358915586
H        -0.41154699872646    0.96894004664219   -3.94917814681322
H         5.98473850742097   -1.89226953601877   -2.84679294408684
H        -0.06301202990345   -6.59603611291769    1.99518926431961
H        -2.53171262597265   -2.72588693376381   -5.80950531253026

