98
CSD_code = POBVEK | q = 1 | S = 0 | Stoichiometry = C39H52AuIN5(1+) | MND = 2
Au        7.62779780933218   10.73095321273252    4.21854467710718
I         6.00562383676578   10.73094245963081    7.99992272730964
N         3.79694490819816   10.72956669073624    5.93469946055965
N         4.65322487401732   10.72980087115415    4.04337601320204
N        10.68131230778966   10.72954516527394    4.13789263920006
N         3.50430055384118   10.72930544072715    4.66998334415252
N         9.78788495510107   10.72958441262780    2.15494474226678
C         5.13776855012548   10.73024766673307    6.11428871760617
C         5.72998608759966   10.73040424865524    4.86148001254968
C        10.85142673738097   10.73025136074341    5.58377059121722
H        11.93129741366328   10.72944604961661    5.75819432579175
C        11.15409164140464   10.72886948986902    1.95825098905293
C        11.72946208480130   10.72886629322039    3.24136054095812
C         4.74181277529624   10.72980278455862    2.62479287283339
C         9.51227179600343   10.72998051872407    3.47370509154317
C         2.80559135509880   10.72915023304046    6.95169994166394
C        13.10740861162915   10.72829989908766    3.41592145702266
H        13.55952727644189   10.72822468508107    4.39474234949054
C         4.81062658765738    9.50542026861166    1.95812813644656
C         2.35121336993901    9.50068412920823    7.43344869817465
C         8.77003364066598   10.72984402813741    1.11887006769137
H         7.80950454528724   10.73083594694189    1.65070634575718
C         8.84322519169557    9.45867596932721    0.27714033316648
H         9.75218011922349    9.42004558406699   -0.31474914666870
H         7.99075852775811    9.42649733595570   -0.39520568539913
H         8.81130710170385    8.58082989154628    0.91859626373162
C        11.95673979412715   10.72831215633345    0.82340947725638
H        11.54485889890535   10.72822240623719   -0.17162014868470
C        13.32360585948033   10.72783690925472    1.00740072012926
H        13.97098597071435   10.72746633234810    0.14478265060775
C        10.26739553686030   11.99702019804072    6.20373900129984
H        10.68140243415239   12.88141937202646    5.72476425910937
H        10.51266620754277   12.02965609883746    7.26115706271614
H         9.18535492799801   12.01525594907907    6.09878088080872
C         4.96872082816450    9.53090649945623    0.57860516177757
H         5.02718977838787    8.60295056732088    0.03287075691820
C        13.89089115117988   10.72781997875120    2.28137994350868
H        14.96476117347948   10.72741924840986    2.37943851956425
C         2.85764970625442    8.20764262640559    6.83981024459675
H         3.87785802770027    8.36222160327163    6.46494425022258
C         4.74034828448969    8.18924962318624    2.69411544725413
H         4.55014991608499    8.37499122268750    3.75583222487598
C         1.38594550189955    9.52652613057100    8.43025927246324
H         1.00093726369802    8.60197211724095    8.82630774236523
C         5.04998294536312   10.72980351084119   -0.10365087549656
H         5.17017429404571   10.72980103094149   -1.17641231630139
C         0.91075346773017   10.72832752824004    8.92145469298707
H         0.15972137489448   10.72800110444291    9.69610092042708
C         2.91965605610048    7.06940162310419    7.85684513081693
H         3.44042104731963    7.38599951688968    8.75774857055665
H         3.45602011601226    6.22613970244677    7.42831983605695
H         1.92493576700651    6.72727878404801    8.12723087774967
C         1.96077297676434    7.82899246912662    5.65542270171852
H         0.93816081152930    7.68372793386384    5.99434811920454
H         2.30899390769716    6.90432882165622    5.20209503413929
H         1.96232616245317    8.61328667846995    4.90032901387737
C         6.07687588121877    7.45123103629791    2.58010024161311
H         6.30311844906086    7.22060876722839    1.54273098174957
H         6.03573615033630    6.51891585386787    3.13753960313621
H         6.88424614750374    8.06137475020659    2.98505975131973
C         3.59218720016191    7.32913130442876    2.16310223628882
H         2.65010189529652    7.86827958285044    2.22963188937850
H         3.51143415286281    6.41717706139664    2.74916237801475
H         3.75697559791375    7.05098841385477    1.12635805512176
C         4.81283195183653   11.95419628973053    1.95837317422865
C         2.35028825620028   11.95722407181261    7.43358107074509
C         4.97089667037302   11.92870614120160    0.57884430034508
H         5.03101352695971   12.85667389470924    0.03329695478339
C         2.85573051825083   13.25075388441329    6.84015847375854
H         3.87584081273309   13.09689379111403    6.46477695649887
C         4.74386220758680   13.27041311253665    2.69440302515424
H         4.55610384905855   13.08476711325063    3.75658329010703
C         1.38498972984912   11.93053458250562    8.43034196540587
H         0.99921524366023   12.85475788631186    8.82642855790254
C         2.91752633736671   14.38867823032743    7.85753555639092
H         3.43896339469191   14.07205502580718    8.75799577329106
H         3.45314773229718   15.23243238624602    7.42901997861307
H         1.92276029287922   14.73005391655979    8.12852759409476
C         1.95819557149490   13.62931256765401    5.65624977461632
H         0.93558623627953   13.77372648182808    5.99555027149228
H         2.30564024066971   14.55439007031380    5.20316700003809
H         1.96006930003790   12.84531805874566    4.90084511229683
C         6.07962172345213   14.00932145524180    2.57751105053660
H         6.30345117680682   14.24045879319871    1.53974440787841
H         6.03909156935352   14.94144870108400    3.13531263138785
H         6.88826736226746   13.39960286962125    2.98054237901403
C         3.59393741983760   14.12956330696451    2.16558239890356
H         2.65221286832026   13.59018402668107    2.23542899667386
H         3.51454565529290   15.04225180166048    2.75068235221950
H         3.75573809190701   14.40630093182592    1.12798309364539
C         8.84507756525323   11.99998745318500    0.27575479339777
H         9.75381215728506   12.03643275541295   -0.31660002730412
H         7.99238189700484   12.03289803389778   -0.39626512745843
H         8.81494923379131   12.87859311387343    0.91625266660187
C        10.26531979242272    9.46531248200369    6.20550537140009
H        10.67702951688884    8.57956681538011    5.72703748074453
H        10.51152343734728    9.43323006115432    7.26272692660646
H         9.18314033973442    9.44920074407584    6.10162196041351

