70
CSD_code = POBVIL | q = 0 | S = 0 | Stoichiometry = C36H29O3PW | MND = 9
W         1.75189082280792    3.58105179161777    3.08932054261950
P         0.71842207530945    5.75020412732954    3.11496091614908
C        -0.02274825616250    3.05189941674668    3.69748525119814
C         1.21684976878282    3.76113610442072    1.18851037989718
C         1.32694959053262    2.14359486570100    1.46996299552879
C         0.30833062870421    1.24174297958276    1.18592981179362
C         0.87536699188979    0.14874009607483    0.51074638224511
C         0.12500741594916   -1.06199295956860    0.07420378982161
C         2.22759400421781    0.44061318005560    0.38720177218646
C         3.34968274430361   -0.28754725654302   -0.17377381657729
C         4.65046981105773    0.08573052238096    0.18036020432965
C         5.74203712985088   -0.58940238694119   -0.32567030923589
C         5.56221233955083   -1.65025835058135   -1.19894093580925
C         4.27990968592136   -2.01941453813377   -1.56965830890607
C         3.18190630056636   -1.34716948522348   -1.06751131663020
C         4.09484151645660    3.42232101095925    3.06275269023679
C         3.72431720564769    4.49001706693088    3.89378286710183
C         2.98719075674586    3.95678310630630    5.00116494114145
C         2.96023667795912    2.55205920405178    4.85899927176710
C         3.60550437276007    2.22378550647009    3.65146438513659
C         1.29778282217175    6.94385753293262    1.86515996746401
C         2.48250835592418    6.67566673050660    1.19107626387462
C         2.96916837301552    7.56925468489937    0.25450181870853
C         2.27254689164249    8.73546292560525   -0.01528696465651
C         1.08846710128796    9.00613147844341    0.65212801766114
C         0.59920820084851    8.11571697434061    1.59004157512778
C         1.03566631723495    6.61876228168196    4.67853865409661
C         1.89310211097831    7.70577556236572    4.78955611805796
C         2.15243247028757    8.25474124368491    6.03491346954525
C         1.56152000787655    7.72339456382521    7.16829503808693
C         0.70978120333848    6.63276211157936    7.06199776801921
C         0.45389033082022    6.07687894577894    5.82407309368073
C        -1.09213295132139    5.89967178939382    2.95461929271809
C        -1.83225944945659    6.83523527619217    3.67257223609741
C        -3.20308395746120    6.91577588679597    3.50093630507892
C        -3.84485076330861    6.07207290176643    2.61051891581574
C        -3.11170941734199    5.14436909486126    1.88799391086364
C        -1.74274337925668    5.05595061975546    2.05921101123192
O        -1.03123015042350    2.71030318175337    4.14628328612854
O         0.95848419180046    4.16488347589705    0.10248915384777
O         2.48404280545651    1.63861197190398    0.95867579418734
H        -0.72760493754092    1.36574163412820    1.44128756110446
H        -0.04767296231832   -1.04472301834011   -1.00192510523661
H         0.67168407770890   -1.96930500071628    0.32464540408347
H        -0.84197508114359   -1.08635694320485    0.57084496391312
H         4.79346169494640    0.91233037729727    0.85944183828483
H         6.73947463860088   -0.28919165498687   -0.03835916873291
H         6.41626208046202   -2.18080689788340   -1.59290369489773
H         4.13368978929057   -2.83676501001495   -2.26087536980667
H         2.19432702768082   -1.63148098594113   -1.38797669768034
H         4.74010835150264    3.47802142497307    2.19651319679879
H         4.05323269497173    5.51880579226191    3.80759796943776
H         2.73212377082689    4.50443542198183    5.90037054302853
H         2.57117314448683    1.84737909220554    5.58101949221949
H         3.82641585997233    1.21910251157074    3.31277774387672
H         3.00835371033312    5.75307363125352    1.39884422003231
H         3.88826954944793    7.35461700868029   -0.27095981917058
H         2.64859193481887    9.43210769236640   -0.75012700317819
H         0.54302476073785    9.91379949440541    0.43776273290373
H        -0.32716243453591    8.32416366251599    2.10667857119381
H         2.35393262484707    8.12199460074223    3.90407605119660
H         2.81992031244141    9.10008068200313    6.11953500416503
H         1.76676088225669    8.15486033571717    8.13691122662279
H         0.25325790711802    6.21517062261302    7.94756314347149
H        -0.19541348707966    5.21601497554194    5.72239491393652
H        -1.33941753284241    7.49602407953412    4.37265517215880
H        -3.77125303629664    7.64027092168753    4.06637564913832
H        -4.91518432151630    6.13602213936727    2.48148634835964
H        -3.60984759332295    4.48578842473236    1.19213535005080
H        -1.16599612288192    4.32845174989767    1.50432352303731

