98
CSD_code = POBVOU | q = 1 | S = 0 | Stoichiometry = C39H52AuIN5(1+) | MND = 2
Au        1.85815219088961   11.13232346885052    3.72073226247988
I         2.76692334911196   10.22813945094314   -0.20582375799451
N         4.47138721690421    8.02429109276620    2.88931137227294
N         4.23936294243376    8.35729477642302    1.65634984304983
N         3.76533509132309    8.85292655059871    3.61549047490859
N        -0.10858027561459   13.41145853904566    4.08756734673119
N         0.55708408727855   12.59817302726178    5.99403005863272
C         0.67924178886727   12.48492663418206    4.65834236479721
C         3.66750583557838    8.79953662599287    7.78001477918770
H         3.63031433236976    8.79978768653926    8.85886040045290
C         4.68113736929984    9.58093966940269    5.73804548595661
C         1.26448185108642   11.75177761514808    6.93855705909671
H         1.86603995636004   11.06840889326586    6.32467749660706
C         2.21623149326820   12.57106416129388    7.80602136490209
H         2.87517673404704   13.16861662378477    7.18012858100266
H         2.82389586571492   11.89733293159976    8.40311636138380
H         1.67922507249341   13.23636957743958    8.47460876764325
C        -1.65805845088207   13.29371557653972    2.18675036863223
H        -1.97628918534268   12.31175801110735    2.53004902244609
H        -1.69394784087356   13.30690431492694    1.10129324622430
H        -2.35772018144588   14.03385210474314    2.56203326730761
C         4.73319827042178    5.97240932556147   -1.09258592494600
H         4.23845141943935    5.13674272073203   -1.55833040700383
C         1.86454768748707    5.60400421256500   -0.49074012807912
H         1.77071860148808    6.30151041613928   -1.31975287084378
H         0.88080286435902    5.45887594890658   -0.05094796746286
H         2.20172230003893    4.64545603626808   -0.87379695519193
C         5.42130265693738   11.91734280476003    5.28569224640148
H         4.42252950375825   12.17684693252822    4.93474863648618
H         6.14425511133182   12.53120988755794    4.75453657769448
H         5.48779562799560   12.14874084558275    6.34522005624797
C         0.28952607138509   10.91422028434856    7.76180753869172
H        -0.30655133026689   11.53007930937023    8.42774678629902
H         0.84862276441935   10.19955094473785    8.35877370625976
H        -0.38196061863922   10.36579531325533    7.10494456694037
C         0.39537391280885    7.70059332550491    5.11756326274897
H        -0.31239683747863    7.11652163544244    4.53487060775417
H         0.32522837243220    8.74242055150286    4.80468907241095
H         0.11485947119833    7.63316629599677    6.16507374539110
C         1.91971371075004    5.69830498693921    5.29856776353414
H         1.64034611898944    5.55271460964049    6.33784308066675
H         2.93636958982891    5.33743205704959    5.16124604459732
H         1.25379689088014    5.09982584992718    4.68209641551833
C         7.60385118129976   10.12613665891731   -0.18804663084657
H         8.48403247493507    9.59002791737212   -0.53073851841155
H         7.94031900403192   11.02688014390971    0.31985330773806
H         7.01129662959184   10.41949166506742   -1.05158962566690
C         3.10912161679241    5.08822352173637    1.63753879392214
H         3.61084843593368    4.23322572389447    1.19172183536895
H         2.17867988407861    4.74776353718908    2.08511167150089
H         3.74940429216253    5.49008193327356    2.42080420415049
C         7.12313767788974   10.06687490423360    5.48367277192576
H         7.26978134778791   10.28636935895184    6.53709268406963
H         7.85201049757518   10.63855264043510    4.91473669620996
H         7.31112206801027    9.00793741363238    5.32278875746993
C         1.81534382338380    7.17149815985797    4.89973552518486
H         2.03720967150779    7.24048641378027    3.83025491511241
C         4.82991397620553    7.68156543614578    0.55565676383625
C         6.61770445704347    7.46200571593535   -0.99469472962258
H         7.57163966765672    7.77274120751989   -1.38639150503742
C        -2.12029383187615   15.69958485663225    6.21360994913859
H        -2.82437240750146   16.51646473949349    6.20707697233618
C         2.82356171185552    6.14780995996040    0.56702293205735
H         2.32446356683571    6.99848938856248    1.04898009316566
C         2.77519379720749    8.02658488312181    7.06191580876615
H         2.04694851933679    7.42864384994036    7.58583181200270
C         2.80521180942601    8.00824242901048    5.67355727922368
C         7.65796861925289    8.70086640088616    1.88693682403356
H         7.06133811221492    8.14365643694068    2.60721946277512
H         8.17562436798991    9.50372426074960    2.40591553534219
H         8.39995718727478    8.02783054838549    1.46463539923447
C         4.61191557850894    9.56675604090444    7.12501296988084
H         5.30546507777263   10.16080321749258    7.69817408612912
C        -0.79549712831490   14.13480879702576    7.49725687359186
H        -0.48057911273090   13.74837532085755    8.45182202807758
C         5.70799719494031   10.43465096547021    5.03393375023765
H         5.64851709096844   10.26049396563781    3.95502850983448
C         6.77521991904948    9.27523708965763    0.77280719989500
H         6.02854993853006    9.93751276016814    1.23016071724671
C         4.13748153538504    6.61252415368415   -0.01475075565709
C        -1.69419783661777   15.17857483396293    7.43434898413475
H        -2.07659124932779   15.60191645795649    8.34960981174544
C         0.26503217308738   14.95572230686238    2.21461491846965
H        -0.37155088433407   15.75004099295570    2.59137510949055
H         0.27407230428138   15.00868135560364    1.12980138847497
H         1.27730727491874   15.12292516472864    2.57604213195795
C        -0.23159760657358   13.57933880808442    2.64949551274029
H         0.43108675722806   12.82005731512834    2.21410426159740
C        -0.75544632796911   14.14142101684095    5.06384684136697
C        -0.32494365861528   13.61532948584577    6.29715893490800
C         6.06346215698318    8.13437983035870    0.08537536183867
C        -1.66187728577495   15.19399001615271    5.01557766567521
H        -2.00517719782074   15.61246238313180    4.08470313889487
C         5.95784888716873    6.39479340815251   -1.57546067624151
H         6.40564454524607    5.88344526168799   -2.41338064977514
C         3.76224998998399    8.79915435360104    5.03581797977436
C         3.05081514592361    9.74898599694316    2.89704247409850
C         3.38212315350994    9.40209697146516    1.59695042662472

