47
CSD_code = POCDAN | q = 0 | S = 0 | Stoichiometry = C20H18N3O5V | MND = 6
H        -2.33196075458350    2.26724664043637    3.65591973214195
V        -7.95269592049230    2.48769353380260    1.69852761138635
O        -9.21865850876114    3.01100394788833    2.37013301371365
O        -8.48539221645102    1.82467190767387    0.22401661339611
O        -6.65534276217722    3.46490165296332    2.73330426102337
O        -2.49095967654875    3.07656187706390    3.15949840534628
N        -7.73642923795444    4.17849106709980    0.67056327050206
N        -6.89835789559174    5.07906150935304    1.19438520466439
C        -9.30827626054060    2.23258168939482   -0.69420367624477
C       -10.12877861998390    1.34820931489591   -1.40927218892762
H       -10.09106995851803    0.29851410002246   -1.15577009804281
C       -10.97268620382001    1.81708374836144   -2.39286191817927
H       -11.60805815298814    1.12399126633108   -2.92381123595359
C       -11.01180351771341    3.17244877769399   -2.70985617887250
H       -11.67632369751276    3.52552576699963   -3.48303283914718
C       -10.20063478546037    4.05757579067089   -2.03614104627561
H       -10.22421252262430    5.11057757702108   -2.27626042454509
C        -9.34484013210800    3.61772584297436   -1.01829838410128
C        -8.46275424505104    4.51677755493999   -0.34083367711240
H        -8.37764406084248    5.54110015740876   -0.70716505559221
C        -6.37171905766615    4.62244026013675    2.30212713896564
C        -5.36746325884746    5.48440931479212    3.02244767712643
H        -5.60007211739900    5.49349843739808    4.08865505811018
H        -5.43618549668400    6.49427021369043    2.62160637225538
C        -3.95380731012256    4.92869813805201    2.80599292315918
H        -3.79998927231816    4.71181143218000    1.74698723448476
H        -3.21712405565580    5.67623235176138    3.10386978166102
C        -3.70783840768152    3.64827993899682    3.59990751384616
H        -3.65361806055261    3.88172345142453    4.67305578974259
H        -4.53846337960025    2.94694624276887    3.44299471806577
N        -5.74609893309373    1.98934565419391    0.70222964634541
O        -7.42423996039147    1.08344497795651    2.53997069522264
C        -4.91530301457208    2.49602111497544   -0.17323025671201
H        -5.32539239195598    3.22486504738477   -0.86381375493369
C        -3.55908140717149    2.13683983870740   -0.23805897818802
H        -2.92025849266574    2.59967360566528   -0.97393756136524
C        -3.07136531687660    1.20561209039846    0.63965363353267
H        -2.03316168968619    0.90760323940076    0.62021720227943
C        -3.93876572366024    0.63576118725692    1.59412683783084
C        -3.54677685434195   -0.31556415029929    2.55767939259821
H        -2.52351082260181   -0.66094343836702    2.56562169179824
C        -4.45756817745268   -0.78504131842577    3.47022370641816
H        -4.15040798284750   -1.51345685225685    4.20670210933508
C        -5.78084142132847   -0.33614745305051    3.48424698681319
H        -6.47883233296249   -0.70692855546423    4.22060084956469
C        -6.22223064560482    0.60306368534236    2.55866708689209
C        -5.28370528653574    1.08479782238124    1.58421511597024

