45
CSD_code = POCFOC | q = 0 | S = 0 | Stoichiometry = C12H23F3N2O3SZn | MND = 4
Zn        5.67919178509667    1.66115260441322    3.23054633095769
S         3.87293485199751    0.11297857472472    2.11581004650936
F         3.60054024523793    0.14773642350071    4.69842793950430
F         1.68840709464355   -0.02834327745744    3.71140270525913
F         2.99621995679141   -1.73785094140959    3.84677021690341
O         3.76120755565907    1.55744073911789    2.17029406519367
O         5.22399532388240   -0.31262188566449    2.44938090288696
O         3.26172266960067   -0.53703631689185    1.00548884527444
N         6.66543666639884    2.10801573517784    1.31420920032317
N         7.68248995273584    0.54979700081018    3.33061998066522
C         6.17350415203475    2.98340000469549    0.26300428356403
C         7.36405568265616    3.61578341821271   -0.47553955694730
C         5.35236365994061    4.08048672713225    0.93775554519702
C         5.29429851418858    2.19797012662264   -0.71856997718096
C         7.42431933365541    1.12886635780378    1.05961382125052
C         7.96624281498957    0.30078794446756    2.12563046342984
C         8.18611966573660   -0.20003579310884    4.45219997426695
C         9.23442303206322   -1.26242325501607    4.10662796849692
C         8.78689945714714    0.83552240702189    5.41265366269876
C         6.97532053415925   -0.86977618666690    5.11405829869501
C         5.38939711971354    2.90429121374406    4.76804769836111
C         2.95953567984157   -0.41754440278134    3.65997278591688
H         8.01282311853025    4.12699867894992    0.23227787025904
H         6.99851194937006    4.34028919405815   -1.19790277497346
H         7.94900709659626    2.87005100792704   -1.00805742110273
H         5.00322949412640    4.79916317087183    0.20085526835659
H         5.95816052647313    4.59803849559664    1.67777411080093
H         4.49341824345217    3.63768734472765    1.43240370827412
H         4.85254276066671    2.88089755674708   -1.43947222484710
H         4.49578054146976    1.69331221606430   -0.17869411796137
H         5.87163099933891    1.45074677951595   -1.25885597202434
H         7.73555540950558    0.86135175531347    0.04704569934852
H         8.61879266213695   -0.51287110056590    1.80711632122734
H         8.80751018788439   -2.04379135759744    3.48223264947731
H         9.59024586353272   -1.72217458084171    5.02465698457989
H        10.08847117398226   -0.81928850216288    3.59758209182678
H         9.06521844834359    0.35775169813611    6.34768054078156
H         8.05782703082887    1.61487714860648    5.61265593688863
H         9.67131493801133    1.29097274395104    4.97357624622311
H         7.30197927367676   -1.45959880794766    5.96682076257618
H         6.47220988130634   -1.51712395698388    4.40063779245440
H         6.26772088751337   -0.11630027196133    5.44984820781224
H         6.23002071553195    3.57436940481686    4.91331909573766
H         5.22022192159804    2.38778654436191    5.70654332400821
H         4.51658112794306    3.52105761997177    4.58665069905185

