113
CSD_code = POCHUK | q = 0 | S = 0 | Stoichiometry = C48H58HfN6 | MND = 8
Hf        6.61405518516630    7.54390627333279    3.32311203119602
N         5.18273610545336    8.92709018935385    2.26004887115096
N         5.35959855383697    8.39137728495631    4.81927062006588
N         4.89874389877706    6.12528993200246    3.10110718336831
C         5.75854287464526    8.30116083991973    6.20493892815736
C         6.84315688924328    9.34147120168137    6.50794950092907
C         5.05477215186713    9.01099949157828    0.81773566950360
C         4.10428891025254    9.13456291789755    2.99144349578066
C         2.79997565043612    9.24628384106832    2.45399954552562
C         1.63381960314872    9.73815303832419    3.00142094308211
C         1.44948365254454   10.41175000515920    4.19835346897161
C         2.40049242591053   10.59342013548455    5.19150383892334
C         3.64345841397705   10.01349061124247    5.31931075312340
C         4.35980852670811    9.15900229392540    4.44643785491770
C         5.64544513246007    5.92577375881440    2.07473815671763
C         5.32082360059050    4.78421056748077    1.08418946040101
C         6.55994784479398    4.18170646051402    0.50345119710475
C         7.23031594683841    3.17455295218332    1.19008639395462
C         8.36956183190713    2.59439713522520    0.66590883375765
C         8.86538401350768    3.01732870235290   -0.55643994905614
C         8.21553805719550    4.02763900400578   -1.24382665080174
C         7.07279730490823    4.60407599915598   -0.71804756655797
C         3.69782868802745    5.37342439776871    3.48160860953224
C         2.50602545729217    5.69950955889679    2.57351972467337
C         1.25434892436111    4.95673265933718    3.03206184541279
C         0.91130440734840    5.32561710450000    4.47108037327083
C         2.08927168440720    5.00623442376195    5.38562716899881
C         3.33695807270840    5.74937070662253    4.92029053987942
H         6.16943661587733    7.29627703841032    6.35521483177822
H         4.90621532195988    8.43144486338814    6.88570836329169
H         6.50827141109477   10.32248753853108    6.16316001004824
H         7.01178418561622    9.39486562545578    7.58646545250181
H         4.33986361290141    9.80092024264287    0.54237738146681
H         4.67724005963470    8.05664643425093    0.41814339021331
H         2.69354224744186    8.85390486550240    1.45061197700052
H         0.75475186493559    9.64921118425379    2.37235552623540
H         0.47299088522627   10.84408105731541    4.37095115390593
H         2.09637123328512   11.22212001810023    6.02107924223089
H         4.15448443424566   10.24956860751927    6.24289100673689
H         4.73304340761918    3.99873478070627    1.56994609834531
H         4.71549543080969    5.22118075945320    0.28335227890058
H         6.84136772117429    2.83858498291891    2.14110758097481
H         8.87062113564288    1.80414837130073    1.20758914827129
H         9.75148255698822    2.56049570246234   -0.97178196713464
H         8.59667156087935    4.36300303279818   -2.19769198018160
H         6.56319818527255    5.38188899603286   -1.27061553822724
H         3.89476871513949    4.28996584619083    3.44474981547946
H         2.73123959219023    5.43717258369605    1.53854116800092
H         2.32859803451730    6.77603017138976    2.61888235144460
H         1.42424752918863    3.87885852058071    2.96498217993370
H         0.41912928949502    5.20449211055222    2.37268727995371
H         0.02253823101912    4.77942121802611    4.79534753117023
H         0.69072520448945    6.39423708789190    4.52614477150545
H         2.28018137269431    3.93081473517995    5.37232801902301
H         1.85456202542554    5.28968909191491    6.41362787016700
H         3.15493352023902    6.82483817630760    4.96067743845180
H         4.18196629899004    5.52238205691985    5.57118274158521
C         6.38486574529852    9.34162110088391    0.13828052045064
C         7.46946685722845    8.30131182239938    0.44132171716132
N         7.86845031530368    8.39147813576403    1.82698788433555
N         8.04530147090208    8.92714999600227    4.38622983418818
C         8.17331222776469    9.01100051789769    5.82853979413972
N         8.32936920025550    6.12527605873084    3.54492395899571
C         7.58265226598664    5.92565635530808    4.57127869817845
C         7.90723091622166    4.78419362859694    5.56193939928330
C         6.66820586894564    4.18167916531482    6.14285550191872
C         5.99765585547089    3.17461261898767    5.45628224473596
C         4.85839970143772    2.59458777162780    5.98057645594993
C         4.36281238737846    3.01750387714153    7.20301742404697
C         5.01281830873899    4.02775903945197    7.89032186612607
C         6.15551615959470    4.60412383067846    7.36438568273898
H         6.66509501011625    5.38206984174982    7.91676672359128
H         4.63176662494943    4.36323784165332    8.84417806555056
H         3.47683385809683    2.56062067393453    7.61854144414364
H         4.35740554680878    1.80415884862565    5.43911797670280
H         6.38650988833902    2.83856450322670    4.50525568319801
H         8.49494397551336    3.99870319774746    5.07619495435617
H         8.51263293545079    5.22115275628632    6.36271142893666
C         9.53025449743802    5.37339297951304    3.16442007851647
C        10.72189285064162    5.69938107494104    4.07278531457989
C        11.97351485641182    4.95672212620732    3.61385385545155
C        12.31700332415973    5.32560147414171    2.17493890763857
C        11.13875569957432    5.00630390411362    1.26076379702119
C         9.89089626508948    5.74942154852302    1.72571585908340
H         9.33325621807087    4.28994254464708    3.20118888894231
H        10.07297682946326    6.82488245007759    1.68542316925764
H         9.04585878172471    5.52249216035810    1.07479308383138
H        10.94789313099154    3.93086951945872    1.27395536818887
H        11.37349885248925    5.28977477309141    0.23280745915919
H        13.20586789156990    4.77950903940695    1.85063041024179
H        12.53736409051538    6.39426816916006    2.11995205267394
H        11.80371776399486    3.87884361398483    3.68095126938669
H        12.80872064339639    5.20448100717542    4.27319190645586
H        10.49665274543790    5.43699722644566    5.10777138019988
H        10.89933135799299    6.77588656925164    4.02745806323747
H         8.88824265474503    9.80090568693432    6.10390724734157
H         8.55082542730123    8.05663215937473    6.22810304203320
C         9.12375434845425    9.13462046187408    3.65485111273429
C        10.42805252231817    9.24631134272639    4.19232434540296
C        11.59423886928630    9.73812998037115    3.64491635871486
C        11.77862910570392   10.41169883862888    2.44797493166299
C        10.82763593011794   10.59341986968403    1.45481999476370
C         9.58463824483686   10.01356063699782    1.32700917311736
C         8.86826886187825    9.15905658278375    2.19984861636317
H         9.07358092136326   10.24974329019472    0.40347265221638
H        11.13176799484619   11.22215526295282    0.62527651993068
H        12.75514372675705   10.84398352740723    2.27538535116173
H        12.47329610332746    9.64914512939890    4.27399048341984
H        10.53444586154866    8.85393965558597    5.19572146101153
H         7.05864863311031    7.29640065990826    0.29097998277792
H         8.32177035474374    8.43170172658805   -0.23944850475270
H         6.71972501177065   10.32263980178318    0.48310270721991
H         6.21622901667422    9.39502643768414   -0.94023956183539

