113
CSD_code = POCLAU | q = 0 | S = 0 | Stoichiometry = C52H54N6Zr | MND = 6
Zr        4.25723000214493    3.64675191434670    3.54668165975506
N         6.36287625103845    3.50176585695555    4.22848571104907
N         5.45641802754169    5.07363197846134    2.36362489980616
N         3.04511058837309    5.45317203708635    3.78529569148255
N         4.02904335231296    4.02328631598188    5.69977151843398
N         4.32755647071617    1.68767493025458    2.81836256138395
N         1.24748181266522    2.66645782833568    2.64855180291760
C         7.28146413731732    4.20584353720068    3.59843983569084
C         8.66523383693240    3.92858505594534    3.74866747545942
C         9.79156994143358    4.62002596514082    3.37234906065416
C         9.89282673053033    5.87368043906466    2.78432993154116
C         8.84046305997087    6.64526757309299    2.32909126959722
C         7.49362722451139    6.34649465515927    2.24563700326128
C         6.73663262692966    5.24075976406595    2.68806244028031
C         4.81444647368468    6.05008602333753    1.50124430345323
C         3.31085451696236    5.79686319573642    1.36633534443736
C         2.54192859553550    6.17638532843881    2.63651360976918
C         2.58759207640530    5.74886942089249    4.99115876459889
C         1.49142602887209    6.62290783324620    5.18502074860876
C         0.95236625353194    7.19083012321672    6.31569228639265
C         1.41263036214732    7.15586749597499    7.62405462344579
C         2.49148205784174    6.42712270429143    8.08920611323853
C         3.27815365554421    5.50249139131593    7.43084177752757
C         3.29852057636744    5.06076862617468    6.09057336030127
C         4.76869992539134    3.25536422550110    6.68126002187626
C         5.49465901393141    2.08865974226830    6.00789231077883
C         6.74073733236662    2.55016194967284    5.24753797328120
C         5.27685300052751    0.65438160214128    2.90042535702873
C         5.04917520841168   -0.47380165831758    3.72433608561835
C         3.79640030319781   -0.63167255528771    4.54494901321850
C         6.00100859808078   -1.47749499325119    3.82943079835386
C         7.19995166809972   -1.40384436983769    3.14873029805910
C         7.45800382262204   -0.28663114608943    2.37795533016233
C         6.53031349104706    0.73705645521652    2.24802131699819
C         6.93520217688707    1.92806867575635    1.42326123051113
C         3.28940598995565    1.70299057368891    1.76383868641472
C         2.44407633718324    0.40675854305798    1.58482576514810
C         2.77561694070100   -0.48203834598772    0.42422017240936
C         1.84811633696998   -0.67022862462697   -0.59486964178406
C         2.12491412919479   -1.49693664873030   -1.66781383196499
C         3.34077109677567   -2.15396737746943   -1.74305938448401
C         4.26817276073573   -1.98635316128879   -0.72895240565157
C         3.98542893858649   -1.16451250401788    0.34696964685466
C         3.92183253111435    2.11929249500856    0.40058280780837
C         3.00796269284384    2.19537592430165   -0.78869811779079
C         3.38934292325086    1.61920456581204   -1.99576381872803
C         2.57590875250123    1.70349389553594   -3.11029944408861
C         1.36403537645389    2.36882988024614   -3.03847796339273
C         0.97771385033335    2.95302135079817   -1.84486401689304
C         1.79741638360420    2.87147922122870   -0.73364740329432
C         2.49885475566063    2.84213786861475    2.43115785696341
C         0.43705896735976    3.43038315497055    3.45328816485917
C        -0.57007884799203    4.24089697750807    2.89291353862883
C        -0.72810951410733    4.32644132963556    1.40207910108403
C        -1.43460338046011    4.93066966409341    3.72477927960988
C        -1.34652208406884    4.82340972562220    5.10141276648907
C        -0.39840662875871    3.97982925844484    5.65281646149685
C         0.49001193747817    3.28128782441600    4.85497918433257
C         1.43184913735461    2.28404425160844    5.47310821266922
H         8.86852319291030    2.98491003570384    4.23844473163134
H        10.73241590255771    4.13643413922528    3.61008149733797
H        10.88790793408830    6.27982249790824    2.66471084346932
H         9.11464203882301    7.61245020498697    1.92252805171506
H         6.91966077907996    7.12243022107605    1.75864192048246
H         5.27437705159537    6.02229423746957    0.49831877055316
H         4.94142631032220    7.07082566066386    1.90004395171864
H         2.92951591018353    6.40136098275937    0.53835891952718
H         3.13145737678033    4.73879536664172    1.14412211504860
H         2.64237125732487    7.26204722700507    2.80455242865963
H         1.47468353139069    5.95950722296916    2.47308753302145
H         0.94828485069191    6.85655404112859    4.28013643250176
H         0.06431506185067    7.78901188290967    6.14874529726521
H         0.87879256427647    7.75684354098729    8.34776882901424
H         2.73012214527486    6.56195643368762    9.13855773078855
H         4.01995048671070    5.03984353669680    8.06798761054251
H         4.08431635889348    2.85705575731821    7.44972871979383
H         5.51733593804108    3.88416525155569    7.19322895202146
H         5.79599254591045    1.36108814878679    6.76578192084880
H         4.80963709587201    1.60986496377203    5.30102791568566
H         7.44827182633927    3.00731684556192    5.96012106877798
H         7.22629638757710    1.66408758749138    4.80548042348336
H         3.16351215433276    0.25038232963241    4.46727650933658
H         4.05441821190470   -0.79314931077461    5.59254562925829
H         3.23320653531043   -1.50465547745942    4.21316443669679
H         5.79070036415521   -2.33107295786943    4.45920179708133
H         7.92842071151200   -2.19671621577752    3.22922168838609
H         8.40387155375387   -0.19920191277390    1.86027597739441
H         6.26986143179384    2.77329200795332    1.61386770442595
H         6.91394733747198    1.68663123465863    0.35969744462353
H         7.95841206789426    2.21570045110567    1.66719236293635
H         2.51487757506288   -0.17543831899236    2.50010258544219
H         1.40696712464339    0.73855637942408    1.48727526738770
H         0.89859679430781   -0.15593232426253   -0.55008703466361
H         1.39044210147149   -1.62612655567605   -2.44984206685197
H         3.56212003960913   -2.79684020235279   -2.58285000482087
H         5.21732929741818   -2.50218765560299   -0.77223143960116
H         4.71280473120123   -1.05346739307295    1.13687601122127
H         4.40283759710648    3.10081827296625    0.54403697516398
H         4.69914544842697    1.38813089415312    0.17566645874241
H         4.32719022385177    1.08565682787248   -2.06000067319960
H         2.88632756812794    1.24347246040886   -4.03723869951289
H         0.72486960682393    2.43036078066658   -3.90722241573482
H         0.03368116501232    3.47517501309183   -1.77855931655523
H         1.49261013588721    3.31706800180349    0.19812525694831
H         0.06475600275752    4.92142800958593    0.94630658321257
H        -1.68262432381070    4.78198854999389    1.14729151518784
H        -0.68758973877924    3.32715669016885    0.97165217162398
H        -2.19650970638178    5.55942879535606    3.28407988334683
H        -2.02224629412227    5.37469215515781    5.73748362343786
H        -0.34328123819500    3.86545413677111    6.72668247897713
H         2.41073964868136    2.31005768529642    4.97385043066312
H         1.01120219177821    1.28009588796915    5.36998348165306
H         1.55979855175080    2.49182821078631    6.53430256809303

