96
CSD_code = POCMEZ | q = 0 | S = 0 | Stoichiometry = C31H59Cl2P3Pt | MND = 4
Pt        7.17671271006670    3.44923021176654    3.06392283480383
Cl        8.40785584445591    2.18528031022308    5.78320091113858
Cl        6.29326621426859    3.24069011045031    0.86791462761933
P         8.45593773298161    5.15658591560911    5.45946366482233
P         5.66118892932355    5.14783467076551    3.39353873337986
P         8.52125668792375    1.70632439218849    2.31558251439778
C         8.00871040566495    3.62965487198829    4.89934415543273
C         9.59241978597921    4.75782703637285    6.86787471950762
C         9.09523252121469    4.43536871077357    8.14455930034365
C         9.90244549567557    3.69268504073143    8.99211432917342
C        11.18854721908042    3.30355456155729    8.64996001002565
C        11.71801883380865    3.82570459234792    7.48287997761665
C        10.96202369761796    4.57811985736359    6.59295273400940
C         7.73005611575457    4.89704269850182    8.65820485316564
C         7.46540130845684    6.34667326594131    8.23321398365270
C         6.62498189249665    3.97088246423328    8.14131108145781
C         7.66310822099374    4.88814628599793   10.19452498937668
C        11.67177686095730    5.22259802056542    5.39705584351115
C        13.19369651072996    5.29637013191339    5.60968399950572
C        11.43406821627358    4.42527255189701    4.10943572248318
C        11.19993321755657    6.67238449810803    5.22466034492745
C        11.96565030704177    2.38107495285238    9.57577952927371
C        13.34349593396588    2.00928865976149    9.02041131052302
C        12.16510875977996    3.07186071820478   10.93177910517038
C        11.16474919838132    1.08477047074761    9.76406686862543
C         4.23549911187507    5.15200427427687    2.22333066021380
C         3.10662034698148    6.12298105112448    2.54293317777482
C         4.85863193050543    5.31571899579246    5.03861723268338
C         4.17325373376249    4.00383868511829    5.40003724518335
C         6.44465569180807    6.78835852598374    3.10382680361504
C         7.55942125185982    6.61975783685837    2.07776869015120
C         9.86920090632494    0.88848280178217    3.29212106361970
C        10.79736185167855   -0.03103313282924    2.50950329948800
C         9.30455084120273    2.02004842676953    0.68139194066007
C        10.25404420089294    3.20830435340510    0.77280186810610
C         7.37650040536188    0.30044548094153    1.99840553735692
C         6.36789172824525    0.22460540607224    3.14102840083375
H         9.51197630970376    3.37976678762021    9.94415854371259
H        12.74524653559748    3.62208876450596    7.24667341755947
H         7.45088677057101    6.45694711280642    7.15072918122378
H         8.24227524178118    6.99770173060230    8.62931907018256
H         6.50270315774923    6.67983191593228    8.61719257281697
H         6.58908394561386    3.97932676144518    7.05683233929235
H         5.65706519069523    4.28787350809394    8.52585047293065
H         6.81072021673794    2.94922146845077    8.46608992380453
H         8.51448527403485    5.40922402751881   10.62706909081795
H         7.62096324981788    3.87778488382177   10.59374665090679
H         6.75586074210022    5.39834083183869   10.51308236243690
H        13.66259154132515    4.31689680463902    5.55270613099143
H        13.43331676398878    5.75272677165862    6.56747162527176
H        13.63189032463967    5.90907493027668    4.82396559540418
H        11.81740118181959    3.41309161423114    4.22940385086863
H        11.95610234293829    4.89654822066410    3.27852298638437
H        10.37475848595848    4.36971381886978    3.86223795311792
H        10.14884428528121    6.72575791174810    4.95171527106717
H        11.77206103610131    7.15911950960971    4.43701281758856
H        11.34502334833675    7.22400891746540    6.15139947841781
H        13.83143372955544    1.31075947360054    9.69767123083631
H        13.98101504860123    2.88585734051917    8.92941710058564
H        13.25441258270655    1.52938506103211    8.04829453809959
H        12.73359637274145    2.42896847583864   11.60094371966739
H        11.21314708834768    3.29801663215169   11.40431950903284
H        12.71079684586138    4.00439185832910   10.80176784127214
H        10.99264981616258    0.60829216538680    8.80104549125175
H        10.19915941580877    1.27815154853974   10.22280106319229
H        11.71164715939608    0.39233187811142   10.40105730741931
H         3.85437533564263    4.12875378886482    2.16998136415654
H         4.66194967447936    5.37588664244426    1.24201593283047
H         2.41807453038081    6.16319409215563    1.70079359452905
H         3.48020310275432    7.13031502558693    2.71775562932678
H         2.54340623642901    5.80655824978711    3.41754804443643
H         4.15693307834370    6.15213479016067    5.02994988328783
H         5.64548868860143    5.54148028036456    5.76068208970342
H         4.88696221358438    3.18250388307056    5.30651807096128
H         3.33697320606379    3.80242068132286    4.73340861311337
H         3.80228176470548    4.02341686299816    6.42254069324583
H         6.85621529883287    7.14404965921571    4.05079311773652
H         5.69569497615971    7.50324476925339    2.75401061625709
H         7.16278538937511    6.24317078123707    1.13610829203717
H         8.28690950834081    5.89537959077975    2.45790660203261
H         8.06998505378640    7.56230613849459    1.88969251161033
H         9.36685080949210    0.31764551737708    4.07634381391616
H        10.44879579051986    1.66993934169672    3.78618973953168
H        10.23894969110329   -0.75787676502799    1.92244518981741
H        11.43140684273362   -0.57977973993622    3.20439345476708
H        11.44505450356117    0.53125352827856    1.84153506582647
H         8.49563632628739    2.24891596153811   -0.01476270485278
H         9.81381957267785    1.11843135933972    0.33440612086016
H        10.66480547190713    3.45058196163471   -0.20552443895564
H        11.07725393772422    3.00586216069305    1.45548947960917
H         9.70917608127578    4.07804582565773    1.14262727643354
H         7.93502894700023   -0.63419866560551    1.90021088563654
H         6.85823725195451    0.50263902328844    1.05870389818541
H         5.61377671955145   -0.53675522937439    2.95088535199891
H         5.86468550481795    1.19483332046453    3.24206751400464
H         6.86089586689143   -0.00199126729045    4.08518509809466

