135
CSD_code = POCVIO | q = 0 | S = 0 | Stoichiometry = C48H64Cl2HgN12O8 | MND = 6
Hg        4.03631256794514   14.02289750843000   13.60689466973265
Cl        6.09775124103585   14.43836187976065   14.63793354829555
O         4.40633244591658    7.19276471558876   10.39120803477629
O         8.59912041811735    8.21529636852116   12.02610195391313
O         8.84991845766159   16.40068472592701    8.28833903358512
O         4.75941713998694   15.69694201342544    6.27109258056268
N         4.87109557367277   11.76957600361346   12.85018632878954
N         5.62039624895459    7.14520945006736   10.71723039233029
N         7.62675448255558    7.64863874281775   11.46380557464771
N         4.98767781743124   14.79232070148456   11.40372724106348
N         7.91860950400550   16.29769288892346    7.44902733834063
N         5.95902682312978   16.00207218049836    6.49577655363373
C         4.08211722217497   10.93124278773005   12.18708177333549
H         3.05643291383610   11.24786708885821   12.05431866098339
C         4.51375898431355    9.71956321862422   11.68034664469407
H         3.82661471846745    9.08129764302734   11.15060815220404
C         5.84726664046075    9.34064929267083   11.86606508934870
C         6.67205248498709   10.22889855954361   12.56407490373818
H         7.70877659695975    9.99687652989243   12.74168699450230
C         6.13922630882500   11.41643589156300   13.02980422212086
H         6.75527814414623   12.11802461435560   13.57601627127798
C         6.35460534400818    8.07237889458360   11.35807345917099
C         6.39564490476460    5.89946378714395   10.51754432688811
C         7.83918031713520    6.40624514238876   10.68656254223455
C         5.93965504190065    4.94728598878432   11.62981992793262
H         6.14862908788254    5.36286575122978   12.61335883512057
H         6.42631517324968    3.98120119207027   11.53510482699761
H         4.86399470615135    4.80689534045917   11.54314033477035
C         6.05099159632819    5.29433298382138    9.16319343741725
H         4.98667587409233    5.07263242099527    9.14272036826624
H         6.60824431492531    4.37428256534091    9.01251559145869
H         6.26251492911330    5.98024165404737    8.34902085920381
C         8.78901311919305    5.48709828794412   11.44307373213088
H         9.73611188085313    6.00345528370713   11.58012516227182
H         8.95969675072880    4.57699821628053   10.87530833273015
H         8.40573163883037    5.23116220363913   12.42576148258212
C         8.49804757951873    6.84761848741748    9.37396102312394
H         7.85400456854644    7.52746513536664    8.82008133249609
H         8.73572633255780    5.98898552680362    8.75312729756956
H         9.42074451214659    7.37327238912951    9.61187451171178
C         6.26939515759732   15.12349268019454   11.29099550833164
H         6.85110535143924   15.08898448307068   12.20230374921906
C         6.85660239057083   15.49835448848354   10.09695873023815
H         7.90109684130175   15.76005133639580   10.06858303013791
C         6.07545795947032   15.53664202917032    8.93735002173046
C         4.72805222429988   15.18291306467762    9.06314920471746
H         4.07322516449129   15.18799497390888    8.20791183164671
C         4.24044696390184   14.82311516151890   10.30574269650285
H         3.20215046900991   14.54597523855271   10.42897336506542
C         6.63983036321263   15.93451445253769    7.65399367001858
C         8.19736208402445   16.46586776135505    6.00431392695328
C         6.77688773977272   16.63630677658026    5.43664318912315
C         8.88802758245769   15.16967695897073    5.56296652383351
H         9.17462777426470   15.22163108466112    4.51684485712777
H         8.24251152443085   14.30781387683565    5.71885765506055
H         9.78465424836929   15.03496275924310    6.16479672235479
C         9.14725950451848   17.63848713985203    5.80031084424375
H         8.73733037350897   18.56304005731555    6.19433423968341
H         9.36530137671525   17.76320020846997    4.74355200003845
H        10.07287621388953   17.43224366840544    6.33237143193390
C         6.50150337926342   15.95780294946174    4.10150249027190
H         6.72072472935318   14.89529937599225    4.13611529058373
H         7.09311946008454   16.42192763049138    3.31768848429085
H         5.44632724099072   16.07163618053527    3.86498759691502
C         6.30812060120320   18.09504392892016    5.37186239034874
H         5.24073303742516   18.10482934679976    5.15996145723812
H         6.82523664315757   18.63237571818814    4.58255058891298
H         6.46966318032402   18.60220302105494    6.32076192103680
Cl        1.97621734959938   13.60653583112462   12.57328876414111
O         3.66655347633904   20.85263881165536   16.82226319283740
O        -0.52593706335930   19.83084659791460   15.18619858889056
O        -0.77680023994419   11.64413237169198   18.92469346836937
O         3.31350937164537   12.34876039431216   20.94203457479144
N         3.20174708637224   16.27615398157942   14.36276485812486
N         2.45257959370759   20.90036703094264   16.49597352755586
N         0.44633149065843   20.39725768066068   15.74888134361082
N         3.08518382002314   13.25296352314035   15.80938502186458
N         0.15443940267639   11.74743409812578   19.76404406299595
N         2.11394604043698   12.04343891529180   20.71734144617094
C         3.99078154297051   17.11451780746048   15.02564133880760
H         5.01685830182078   16.79845186669190   15.15723091005942
C         3.55930561172314   18.32637233918918   15.53206475954563
H         4.24676121068020   18.96504563361508   16.06098023784742
C         2.22569052143665   18.70507416969505   15.34686557729056
C         1.40072468031986   17.81659798703532   14.64941912154132
H         0.36375158037030   18.04823794549117   14.47258282357002
C         1.93360677396668   16.62920582353357   14.18340091876711
H         1.31705915968101   15.92690266902962   13.63855236043495
C         1.71841061523465   19.97336191204322   15.85484576018148
C         1.67740334357759   22.14614523703625   16.69570314565069
C         0.23385876045026   21.63950652640867   16.52633226708678
C         2.13367802793231   23.09846576470188   15.58366979917044
H         1.92486288154112   22.68305972749348   14.60002378232699
H         1.64706243067440   24.06456453802376   15.67844599845607
H         3.20933021547962   23.23877288935757   15.67057672130281
C         2.02188435134624   22.75097359717747   18.05023052126684
H         3.08623441298333   22.97248999551638   18.07095050917542
H         1.46475355783978   23.67109037398760   18.20094719859451
H         1.81008216170761   22.06495730126187   18.86424246919884
C        -0.71576469677913   22.55885500227533   15.76981188659177
H        -1.66288517311638   22.04260167320232   15.63250905983886
H        -0.88646501341470   23.46886161223163   16.33771912333443
H        -0.33229464726655   22.81493714412075   14.78723461577528
C        -0.42527233876154   21.19789893684624   17.83872534076566
H         0.21861925083578   20.51787591807310   18.39256661558561
H        -0.66298750416146   22.05641666347527   18.45970405095813
H        -1.34797087973859   20.67237019133526   17.60053884343906
C         1.80342158145242   12.92211395493658   15.92220944655053
H         1.22141436158621   12.95750954602345   15.01108167259734
C         1.21620887974468   12.54741484813159   17.11628054128222
H         0.17157824028570   12.28622349501281   17.14477108138803
C         1.99750481814946   12.50867573158114   18.27574477790049
C         3.34501709744106   12.86191928297897   18.14982030566065
H         4.00003335524849   12.85627122231232   19.00492145737526
C         3.83253641236000   13.22183615458028   16.90724077212182
H         4.87096356053993   13.49840552298644   16.78385724743998
C         1.43317604816705   12.11077244670344   19.55909635174689
C        -0.12436037541403   11.57948896201363   21.20876947854006
C         1.29610325879429   11.40929164056551   21.77653820935228
C        -0.81517855956710   12.87569551996861   21.64982849364952
H        -1.10181242492042   12.82391849934073   22.69594907695541
H        -0.16974831312226   13.73759778065564   21.49378929939872
H        -1.71179703199410   13.01019888669775   21.04793730184794
C        -1.07413993030052   10.40680262643148   21.41291111586048
H        -0.66408945911702    9.48221884889512   21.01908328537019
H        -1.29223317849677   10.28226456325053   22.46967924732866
H        -1.99974635149552   10.61285378594882   20.88075446797095
C         1.57136802079304   12.08809626874848   23.11154788513063
H         1.35206656159566   13.15057705860847   23.07670010973721
H         0.97974619706519   11.62408512502059   23.89542369834533
H         2.62654265100708   11.97439336452184   23.34813878030839
C         1.76503499278288    9.95061933753792   21.84158700008362
H         2.83241462783589    9.94098775604730   22.05353680881933
H         1.24794228774282    9.41337336922242   22.63097071390945
H         1.60358921882550    9.44327351034845   20.89277000375262

