36
CSD_code = POCXIO | q = 1 | S = 0 | Stoichiometry = C10H20ClN4Zn(1+) | MND = 5
Zn        3.10426875612960    8.39121008819325    7.29063618330960
Cl        3.18421568299818   10.30030623170678    8.92431147108073
N         1.60269083686352    6.91217530972645    7.54217631066276
N         1.40871010541134    9.19826120587361    6.05131163097024
N         2.64145920612198    8.89137079794087    5.24250217731088
N         4.41061468165974    7.21196546692715    6.70309609951809
C         3.17253211042702    5.04756011407857    7.33596361183120
H         3.18221179133925    4.47681524804352    6.39887984303812
H         3.24160412079630    4.30015132751368    8.13082902267756
C         1.83690663457736    5.67426549022753    7.39340067463710
H         4.34641252312263   10.76536581843153    9.15035237516750
H         0.99939191982207    4.98857198061412    7.21270497368732
C         0.27652643619428    7.42785548003623    7.31574832681261
H        -0.46898582462464    6.62935353151523    7.23263020539734
H         0.01712958445334    8.08167176616863    8.15155221569523
C         0.29263600542694    8.26130709937592    6.01545312635883
H        -0.64802618323509    8.81381595196782    5.96264723586862
H         0.33191345151008    7.60020086912247    5.14421569419363
C         1.02504983232535   10.56579582771950    5.67704280891229
H         0.18783990825795   10.55940688284212    4.96900054406811
H         0.72053596493771   11.11351799716615    6.57028843328746
C         2.25382390751395   11.16277443001362    5.00350062397434
H         2.98578274743589   11.49335911047145    5.74156739975481
H         2.00288831372832   11.99400122187868    4.35119793366978
C         2.77532958846080    9.94885536926435    4.25441555386618
H         2.16853342419453    9.75028415065101    3.35895961220785
H         3.82080250111333   10.03991439713793    3.96166681210258
C         2.90598718100678    7.55415821014667    4.73394087907647
H         2.17242536444341    6.83214419191085    5.08810734179833
H         2.89267869995837    7.54133001486700    3.63874162983928
C         4.30034594505179    7.12348350963800    5.26272985584460
H         5.04582548004607    7.79551329820448    4.82216957452023
H         4.51114154934389    6.10843752537978    4.92082171677186
C         4.42422246022319    5.95793228628881    7.41854257923066
H         5.27141827687623    5.36259890625936    7.05498498684072
H         4.61665701608717    6.19066889267417    8.46821053602447

