70
CSD_code = POCXAJ | q = 1 | S = 0 | Stoichiometry = C32H32ClIrN3S(1+) | MND = 8
Ir        8.61477146158722    5.12304265862798   11.16431624387529
S         7.69987648023924    6.44180544318729    9.32216411767921
Cl        6.79877607228315    3.66606621701055   10.87177829263830
N         8.76877714921102    4.25383522294085    8.33371098253432
H         8.91209066226768    3.54146181312750    7.61788702981948
N         9.33257226109175    4.00652991410784    9.55376110602167
C         6.53984768109264    6.38399827064879    6.37342754840593
N         7.46202800102316    5.42908885837408    6.86471303154921
H         7.81954220792160    4.79727173613605    6.15737768397333
C         7.95487714219324    5.31329824510922    8.10193811210667
C         9.54664338598834    4.57660981623726   13.10033508433595
C        10.09767394395677    2.97268613573716    9.67280304116097
H        10.57543595751315    2.87156317397713   10.63693587986181
C        10.44413704021886    5.50595354661377   12.45640691196896
C         6.67824248008329    6.79153913310603    5.05047911650280
H         7.48328677645258    6.39821991396026    4.44674406958923
C         8.40704271074408    6.56876967987613   12.79133291687755
C        10.41669608038884    1.98002371011800    8.65817267227165
C         8.31405831991216    5.27201819193175   13.37064352424000
C         5.49214413673611    6.86691093933962    7.14648766153341
H         5.35424840572745    6.52028884837895    8.15696400089263
C         5.78930914899097    7.70464831079378    4.51455779045630
H         5.90405796391172    8.02289178843351    3.49023161783912
C         9.74177368794120    6.71730800603067   12.23983858376625
C         4.75659477343634    8.20625674228968    5.29020913076242
H         4.06425891277930    8.91923853051722    4.87131589139465
C        11.11031655944277    0.09349386737416    6.69833697480960
H        11.37662433748478   -0.61957348441232    5.93176652655359
C         4.60769084284426    7.77937631861312    6.59912192171442
H         3.79300588010234    8.15125399331468    7.20024193497471
C         9.39836667087153    1.28456301631419    7.96401225184659
C         8.02054291440643    1.41651679370218    8.28261195186444
H         7.71498878795206    2.03199574140722    9.11595146088522
C        13.48816042122935    0.44038928678662    7.16973919282379
H        13.72724789604951   -0.29852733544429    6.41996545342897
C         7.43009547866916   -0.13908815084431    6.53482319303110
H         6.65893025919909   -0.66433274302822    5.99345788227286
C         9.89597564911969    3.24481874772380   13.67531418031215
H         9.07554122985787    2.54192923615690   13.54677475018652
H        10.07932591830988    3.35017124974993   14.74560336541203
H        10.78955349126005    2.82564708587651   13.22001288865510
C        11.89149680246520    5.28178300748690   12.17557243023372
H        12.14189776357303    4.22408676917063   12.18081381418854
H        12.48468099048721    5.76852189984658   12.95086782276927
H        12.18222449519382    5.70977759505995   11.21814863175920
C         9.76460636853054    0.34497003777481    6.94941123499956
C         7.20215881402746    4.73285025305169   14.19945282521589
H         6.31752803274515    5.35864729356619   14.13044624404850
H         7.52049340684402    4.69236601278639   15.24180208110839
H         6.93717315961521    3.72361348092641   13.89073136869777
C        10.31728703927561    7.98989858142774   11.72231353364824
H        11.18462201668405    7.80490645156201   11.09416710307861
H        10.63115552190836    8.61222686919358   12.56144210295812
H         9.58255245697146    8.54891192096443   11.14767865504589
C         7.41551246911093    7.67354082351189   12.93449422264594
H         7.48218438427549    8.37059728521895   12.10285773118817
H         7.61398340857830    8.22158180770522   13.85657404388866
H         6.40066705966455    7.28689009040123   12.97952638699864
C        12.83378460825177    2.36620883242124    9.07353723278837
H        12.60028084616957    3.13653346355773    9.79261707583926
C        12.12100918947791    0.72371899916425    7.41884442434076
C        14.13751014837621    2.06174918132885    8.81236344514681
H        14.92817257002526    2.57585834631199    9.33763745642463
C        14.47225232185344    1.08525244213003    7.85429668437870
H        15.51085655908403    0.86392932013626    7.66486490956192
C         8.74426320706543   -0.33649391130956    6.23754137552647
H         9.03975650129595   -1.03189792107468    5.46654922861391
C        11.77790729911349    1.69160961359108    8.41249443063569
C         7.07070523967474    0.72962084927514    7.58351792983542
H         6.03064813915368    0.84098213481292    7.84816960358435

