60
CSD_code = POCXAG | q = 0 | S = 0 | Stoichiometry = C25H25NO8W | MND = 6
W         0.20593980541869    0.97367121565076   15.05880041554767
C         1.19207640773555    1.79499558002363   16.87439154997936
C         0.55752868268359    1.79128102491812   18.16122258455088
C        -0.79095070258703    2.18075872208299   18.31653343997790
C        -1.35519872757490    3.27375667622410   17.47280878126263
N        -1.59960568840379    1.64451835081461   19.21570990316503
C        -1.30476378771366    0.49879026366138   20.04556766940531
C        -2.68165624226803   -0.04108217012985   20.41425206001489
C        -3.47645609758884    1.24842601986021   20.59299470131705
C        -2.95230969839368    2.11773102997801   19.45208995744845
C         1.36800252137447    1.43979612153409   19.32214389599568
C         2.35162108077404    0.35302812943359   19.15133542323142
C         3.62750018863956    0.43824645358474   19.70393881029513
C         4.53112683698153   -0.59684547131315   19.55133482166765
C         4.17325096709175   -1.73909605862824   18.85417102668670
C         2.90574744851484   -1.83736799893601   18.30498007684226
C         2.00480263493136   -0.79939713440991   18.44841582566911
C         1.29401112315933    2.03339289743174   20.54395158265624
C         0.53748899223929    3.20983455103017   20.91854429278368
O        -0.29963291177106    3.81215510046688   20.27539350124825
O         0.89703758788001    3.60885861187495   22.16414265124651
C         0.26605215645583    4.78075394108453   22.64462662866454
O         2.50982108895011    1.91417083595389   17.05828962722919
C         3.42912981216421    1.83517273809475   15.98930242749103
C         4.82902162064625    1.97934284269635   16.56779730561443
C        -0.96263609006876    2.51708455701247   14.56750932711125
C        -0.63133131762290    0.01498003840114   13.52903472568823
C         1.34081411872512   -0.65401160746948   15.28831602806123
C        -1.17101419111350    0.18076138558496   16.25953424098835
C         1.47620251428496    1.73054885460565   13.71477228668257
O        -1.64564322166187    3.31812252277136   14.11726396197281
O        -1.08964989786671   -0.55480764111429   12.64754681030208
O         1.92885128618380   -1.63672316778341   15.26438199139423
O        -2.00802323914576   -0.31695372851049   16.86861829807587
O         2.08045219880854    2.09084427528267   12.81098769130759
H        -0.61910767061243    3.60126432583360   16.74553291140639
H        -1.57874605312084    4.11541757907753   18.12857683895981
H        -2.27548363440216    2.97836959963710   16.97107891689652
H        -0.75883495091508    0.81240603410888   20.94577204677503
H        -0.68335053011789   -0.21518854679533   19.50417200265257
H        -2.65949618934760   -0.65892460350943   21.30862269387232
H        -3.08746031296666   -0.62559234225611   19.58827015966246
H        -4.55200043362626    1.09879254987455   20.53442470265485
H        -3.23858446534642    1.70204425568665   21.55573736441202
H        -3.55548307860291    1.97425317125960   18.54937307888177
H        -2.94060359945675    3.18047829391146   19.70158240206846
H         3.92087399303757    1.33745305551844   20.22456854114409
H         5.52215509283301   -0.51023414800693   19.97335121212138
H         4.88029628724552   -2.54641684879472   18.73459528787837
H         2.61994038050094   -2.72276410516981   17.75700121775166
H         1.01765049148945   -0.88176691651288   18.01095955653878
H         1.93260358138627    1.67121167744225   21.33725018925647
H         0.70142045200868    4.98471536482872   23.61950194933766
H        -0.81238383654855    4.62611009066951   22.73375087940131
H         0.44270305417987    5.61670203683708   21.96396812442589
H         3.22684513619008    2.64144736056769   15.27132764253994
H         3.33067437182938    0.86844961803123   15.47781578726677
H         5.56327120521374    1.94492634136146   15.76840161233284
H         5.02416448337032    1.17141952177857   17.26834618267484
H         4.91932896586795    2.92578887283977   17.09441437751459

