50
CSD_code = POCYOY | q = 0 | S = 0 | Stoichiometry = C22H24N2OPt | MND = 4
Pt        7.79497285872174    6.55866234746002    2.66968250141819
N         9.70153966282329    6.83155110625746    1.77722256696024
N         8.08739859415525    8.83899341817662    2.85982910222132
H         8.53612635351515    9.01382109643942    3.76023430816014
C        10.61529410812017    5.86775797613325    1.67097951921545
H        10.25232539003617    4.85386949200082    1.76225068847331
C        11.95551681005377    6.12340865988515    1.44739960520337
H        12.65486741968050    5.30688164890179    1.36665024931137
C        12.37507288593846    7.43959771272109    1.32816689782394
H        13.41218634506355    7.67976488476542    1.15213079932852
C        11.42759505154700    8.44474156736062    1.44365287625962
H        11.70954306232634    9.48315981203257    1.35828561190200
C        10.10278116150111    8.10463939940078    1.66654822052392
C         9.02840578138835    9.15286722432008    1.77399325443579
H         9.47850116778691   10.14745890490913    1.90376645146536
H         8.46234500776871    9.16486128803635    0.83369204146633
C         6.88320801979190    9.61088525764919    2.76740614133760
C         5.93141427116899    9.25836079905776    1.79774585620091
O         6.11293131729304    8.20225167564894    0.98076308190595
H         6.68731532188664    7.51034678538156    1.46466995587941
C         4.78309397975204   10.03295973026690    1.67259997786709
H         4.06270795428874    9.75521029352181    0.92010177962143
C         4.57016079343123   11.11379231601851    2.50597304188236
H         3.66962702469417   11.69924014908954    2.40009193433457
C         5.49444518327661   11.43800863731356    3.48415666863324
H         5.32132421976441   12.27213304179620    4.14651313785992
C         6.65183275437488   10.69019890045828    3.60469369951155
H         7.38313536540871   10.94016246556436    4.36284202516965
C         6.09441694778624    6.29281488101091    3.68782176075470
C         5.54907742460821    7.19464534545022    4.59690583119207
H         6.05584092187301    8.12361418224210    4.83321843258530
C         4.33956700235388    6.93274500580096    5.22277186944972
H         3.92847653142650    7.65132255844096    5.91893946159554
C         3.65956618641319    5.75966812416144    4.95516726707703
H         2.71410552338394    5.55893445539018    5.43981804153658
C         4.19310481992335    4.83912981501572    4.06811910120309
H         3.65898007953929    3.92075847040329    3.87015158591780
C         5.40101999539075    5.09524468833966    3.44281504050563
C         6.06303001965405    4.17776995206524    2.44076358531553
C         7.55940502488456    4.54608439248936    2.45197689264185
H         8.03279638295415    4.18661907854880    1.52640177590327
H         8.04332957419455    4.04448385422832    3.30352918153790
C         5.87599391812054    2.69368567061262    2.77011036734419
H         6.15325444909574    2.49797397124295    3.80353217465711
H         6.50418495746654    2.08656738046118    2.12054187318543
H         4.84313123186040    2.38687022763383    2.62383740572741
C         5.47500659892716    4.47153945705628    1.05341647017531
H         4.39769662353908    4.32069637469427    1.05748306117403
H         5.91686285195256    3.81405953415543    0.30700088544478
H         5.67838506908858    5.50638598998689    0.77523594070562

