50
CSD_code = POCYUE | q = 0 | S = 0 | Stoichiometry = C22H24N2OPt | MND = 4
Pt        8.13007738533856    8.22312099600240    7.35810591565139
O         1.74357139882403   10.32737874511174    7.88348243515287
H         1.41331676629589    9.62227367905199    7.31373152449354
N         7.29102147330537   10.10337665633946    8.36278851457600
H         7.56232938694289   10.20099414538445    9.34073663430442
N         8.18427100132963    9.57625134512066    5.76956335683353
C         8.97818329463437    6.56653296039760    6.52960510646870
H         8.19052956751344    5.95782120501349    6.05442696835254
H         9.72718540957909    6.81574432984190    5.76401736518161
C         9.64209139631613    5.73798747974927    7.64678874783275
C        10.92792516744190    6.44992486124176    8.09097919240585
H        11.66660551998220    6.43910714756731    7.29200648484809
H        10.68893487597776    7.48774292315199    8.33811153718915
H        11.35188540635996    5.96755469663260    8.96940340110012
C         9.97461109868216    4.32565130932347    7.16084414969872
H        10.54541089946427    4.37602445542033    6.23514661214948
H        10.56948852867833    3.78812386637230    7.89588042736454
H         9.06131652653768    3.76469380732272    6.97484871671085
C         8.67232684237488    5.76830569365179    8.80597974667079
C         7.86321330876351    6.91870394746454    8.84341327023482
C         6.94126430868197    7.03726089871035    9.88067020291644
H         6.27726612422602    7.89446073320406    9.93706233340015
C         6.84087363541385    6.06155261175622   10.86189762653764
H         6.12076421916226    6.17371999648682   11.66204305532893
C         7.65584323514900    4.94602948778811   10.81774241106972
H         7.57582134203113    4.18614041203065   11.58315332424247
C         8.57154856318632    4.79873825311294    9.78770146010903
H         9.19902558915049    3.91912402220288    9.75755398206243
C         5.85993687588153   10.15712037889882    8.25705831958440
C         5.11908589945974   11.11228654130652    8.94398260221216
H         5.61629530788279   11.81658860885169    9.59721272817923
C         3.74653378199789   11.15782669490673    8.81304386548159
H         3.15845031041031   11.88753215241288    9.34554936364911
C         3.09493705884793   10.24527229204800    7.98749493641411
C         3.83398083799924    9.28382831150608    7.30774796410319
H         3.33081291267045    8.56002574309359    6.68086388026710
C         5.20792597463253    9.24323275110151    7.44310540822815
H         5.79429036883205    8.46808910863260    6.94673142887411
C         7.94633540822458   11.15388798717487    7.57199036082259
H         7.52235864408983   12.14892630654349    7.77223903519405
H         9.01072163711286   11.16380978635990    7.83785235593458
C         7.81557551681545   10.82081642423367    6.10935621206752
C         7.33029082391392   11.72795413297693    5.18491044976996
H         7.03855993489598   12.71758956429654    5.50234160688522
C         7.22523845942994   11.34918746432639    3.85397387888282
H         6.85034529758903   12.03897198322173    3.11392902678932
C         7.61258896361297   10.06418454345254    3.50469010918023
H         7.55110379909255    9.72399761074306    2.48320237046824
C         8.08558291544247    9.21651008683349    4.48913337563476
H         8.40704699981431    8.21192086160122    4.25030621849016

