48
CSD_code = POCZAL | q = 0 | S = 0 | Stoichiometry = C22H22N2OPt | MND = 4
Pt        2.65772618376998    3.89993944911065    6.98999517885117
O         2.31885828750251    4.65385083574061    4.08960224693783
H         2.39764989614703    4.20690646026033    4.98508026482554
N         0.91397519329400    3.54172308605829    8.11187275300233
N         1.44272781662951    5.60545136474197    6.50582171741972
C         3.75843777823182    2.27059894339990    7.53334939660477
H         4.23460550764918    2.44712917540974    8.51040707218048
H         3.13550302284986    1.36947335716764    7.63056688409305
C         4.85760036413178    2.01185208485132    6.48392419478456
C         4.21652103365329    1.40101440328316    5.22892148960561
H         3.86322489352476    0.39301191362364    5.43687149720912
H         3.36662134964183    2.01375379686440    4.91567925219905
H         4.93427057089737    1.35896406460715    4.41270240098127
C         5.92708419453509    1.06219464293880    7.02852266606780
H         5.45837292420030    0.16422066473392    7.42700494639845
H         6.62031320179246    0.76280280191544    6.24585715177525
H         6.48921379062284    1.54250725772969    7.82627577190528
C         5.39661413738844    3.37733986310868    6.12843832593371
C         4.47900465069584    4.42302726866869    6.32445977924924
C         4.89215783301453    5.72542185646096    6.05652610347589
H         4.22918709995379    6.56767794134720    6.21902085998619
C         6.16557819687000    5.97809768868762    5.56801842456720
H         6.46644084993224    6.99505346601605    5.35683427606019
C         7.04590494629887    4.93503371610700    5.34981893416748
H         8.03646194048325    5.13477766963066    4.96579404871539
C         6.66323794058525    3.63388466041208    5.63455359507336
H         7.36228658884015    2.82579387464440    5.47484637232294
C         0.65560988266922    2.52247358190283    8.92737789037053
H         1.17201812376839    1.59683188021592    8.71370762501552
C        -0.22988528170093    2.60046045494945    9.98459371822997
H        -0.40538950864324    1.73761302761625   10.60665822951615
C        -0.89243414260946    3.80174703212534   10.22424180456881
H        -1.58816552617524    3.89477312210767   11.04394472262380
C        -0.64088259196343    4.86648023653381    9.38675512458085
H        -1.12564910187190    5.81992226250738    9.53191876648703
C         0.26848847479966    4.71396720349082    8.33457235627940
C         0.52715420845390    5.77400988351312    7.40074619507842
H        -0.10854082926042    6.65766898168509    7.43150235974263
C         1.68836479484527    6.50670838012973    5.48660403961948
C         2.16249357958914    5.97112253074062    4.26571684007521
C         2.41716050656219    6.83442862880019    3.20330299544968
H         2.77018937435361    6.40783974767753    2.27824965775565
C         2.23245282835336    8.19404670857059    3.34399024641561
H         2.44441855455890    8.85092629832988    2.51421835708217
C         1.79235785031675    8.72441415230694    4.55016395542284
H         1.67138066377230    9.79104119349473    4.66224951143816
C         1.51507573155100    7.88728816879000    5.60881039791358
H         1.20040221549342    8.29873421698755    6.55730960194331

